
---------- Begin Simulation Statistics ----------
simSeconds                                   0.572601                       # Number of seconds simulated (Second)
simTicks                                 572600824000                       # Number of ticks simulated (Tick)
finalTick                                1321658810800                       # Number of ticks from beginning of simulation (restored from checkpoints and never reset) (Tick)
simFreq                                  1000000000000                       # The number of ticks per simulated second ((Tick/Second))
hostSeconds                                   5828.51                       # Real time elapsed on the host (Second)
hostTickRate                                 98241381                       # The number of ticks simulated per host second (ticks/s) ((Tick/Second))
hostMemory                                    9140064                       # Number of bytes of host memory used (Byte)
simInsts                                    611264074                       # Number of instructions simulated (Count)
simOps                                      681550066                       # Number of ops (including micro ops) simulated (Count)
hostInstRate                                   104875                       # Simulator instruction rate (inst/s) ((Count/Second))
hostOpRate                                     116934                       # Simulator op (including micro ops) rate (op/s) ((Count/Second))
system.bridge.power_state.pwrStateResidencyTicks::UNDEFINED 1321658810800                       # Cumulative time (in ticks) in various power states (Tick)
system.clk_domain.clock                          1000                       # Clock period in ticks (Tick)
system.cpu.numCycles                       1431502060                       # Number of cpu cycles simulated (Cycle)
system.cpu.numWorkItemsStarted                      0                       # Number of work items this cpu started (Count)
system.cpu.numWorkItemsCompleted                    0                       # Number of work items this cpu completed (Count)
system.cpu.instsAdded                       136975327                       # Number of instructions added to the IQ (excludes non-spec) (Count)
system.cpu.nonSpecInstsAdded                    40031                       # Number of non-speculative instructions added to the IQ (Count)
system.cpu.instsIssued                      139391847                       # Number of instructions issued (Count)
system.cpu.squashedInstsIssued                1643144                       # Number of squashed instructions issued (Count)
system.cpu.squashedInstsExamined             19794693                       # Number of squashed instructions iterated over during squash; mainly for profiling (Count)
system.cpu.squashedOperandsExamined          34850027                       # Number of squashed operands that are examined and possibly removed from graph (Count)
system.cpu.squashedNonSpecRemoved                 770                       # Number of squashed non-spec instructions that were removed (Count)
system.cpu.numIssuedDist::samples          1431371202                       # Number of insts issued each cycle (Count)
system.cpu.numIssuedDist::mean               0.097383                       # Number of insts issued each cycle (Count)
system.cpu.numIssuedDist::stdev              0.404641                       # Number of insts issued each cycle (Count)
system.cpu.numIssuedDist::underflows                0      0.00%      0.00% # Number of insts issued each cycle (Count)
system.cpu.numIssuedDist::0                1332901471     93.12%     93.12% # Number of insts issued each cycle (Count)
system.cpu.numIssuedDist::1                  70868058      4.95%     98.07% # Number of insts issued each cycle (Count)
system.cpu.numIssuedDist::2                  14312357      1.00%     99.07% # Number of insts issued each cycle (Count)
system.cpu.numIssuedDist::3                  13258190      0.93%    100.00% # Number of insts issued each cycle (Count)
system.cpu.numIssuedDist::4                     31125      0.00%    100.00% # Number of insts issued each cycle (Count)
system.cpu.numIssuedDist::5                         1      0.00%    100.00% # Number of insts issued each cycle (Count)
system.cpu.numIssuedDist::6                         0      0.00%    100.00% # Number of insts issued each cycle (Count)
system.cpu.numIssuedDist::7                         0      0.00%    100.00% # Number of insts issued each cycle (Count)
system.cpu.numIssuedDist::8                         0      0.00%    100.00% # Number of insts issued each cycle (Count)
system.cpu.numIssuedDist::overflows                 0      0.00%    100.00% # Number of insts issued each cycle (Count)
system.cpu.numIssuedDist::min_value                 0                       # Number of insts issued each cycle (Count)
system.cpu.numIssuedDist::max_value                 5                       # Number of insts issued each cycle (Count)
system.cpu.numIssuedDist::total            1431371202                       # Number of insts issued each cycle (Count)
system.cpu.statFuBusy::No_OpClass                   0      0.00%      0.00% # attempts to use FU when none available (Count)
system.cpu.statFuBusy::IntAlu                 6753287     14.95%     14.95% # attempts to use FU when none available (Count)
system.cpu.statFuBusy::IntMult                   3503      0.01%     14.95% # attempts to use FU when none available (Count)
system.cpu.statFuBusy::IntDiv                    4071      0.01%     14.96% # attempts to use FU when none available (Count)
system.cpu.statFuBusy::FloatAdd                     0      0.00%     14.96% # attempts to use FU when none available (Count)
system.cpu.statFuBusy::FloatCmp                     0      0.00%     14.96% # attempts to use FU when none available (Count)
system.cpu.statFuBusy::FloatCvt                     0      0.00%     14.96% # attempts to use FU when none available (Count)
system.cpu.statFuBusy::FloatMult                    0      0.00%     14.96% # attempts to use FU when none available (Count)
system.cpu.statFuBusy::FloatMultAcc                 0      0.00%     14.96% # attempts to use FU when none available (Count)
system.cpu.statFuBusy::FloatDiv                     0      0.00%     14.96% # attempts to use FU when none available (Count)
system.cpu.statFuBusy::FloatMisc                    0      0.00%     14.96% # attempts to use FU when none available (Count)
system.cpu.statFuBusy::FloatSqrt                    0      0.00%     14.96% # attempts to use FU when none available (Count)
system.cpu.statFuBusy::SimdAdd                      0      0.00%     14.96% # attempts to use FU when none available (Count)
system.cpu.statFuBusy::SimdAddAcc                   0      0.00%     14.96% # attempts to use FU when none available (Count)
system.cpu.statFuBusy::SimdAlu                      0      0.00%     14.96% # attempts to use FU when none available (Count)
system.cpu.statFuBusy::SimdCmp                      0      0.00%     14.96% # attempts to use FU when none available (Count)
system.cpu.statFuBusy::SimdCvt                      0      0.00%     14.96% # attempts to use FU when none available (Count)
system.cpu.statFuBusy::SimdMisc                     0      0.00%     14.96% # attempts to use FU when none available (Count)
system.cpu.statFuBusy::SimdMult                     0      0.00%     14.96% # attempts to use FU when none available (Count)
system.cpu.statFuBusy::SimdMultAcc                  0      0.00%     14.96% # attempts to use FU when none available (Count)
system.cpu.statFuBusy::SimdShift                    0      0.00%     14.96% # attempts to use FU when none available (Count)
system.cpu.statFuBusy::SimdShiftAcc                 0      0.00%     14.96% # attempts to use FU when none available (Count)
system.cpu.statFuBusy::SimdDiv                      0      0.00%     14.96% # attempts to use FU when none available (Count)
system.cpu.statFuBusy::SimdSqrt                     0      0.00%     14.96% # attempts to use FU when none available (Count)
system.cpu.statFuBusy::SimdFloatAdd                 0      0.00%     14.96% # attempts to use FU when none available (Count)
system.cpu.statFuBusy::SimdFloatAlu                 0      0.00%     14.96% # attempts to use FU when none available (Count)
system.cpu.statFuBusy::SimdFloatCmp                 0      0.00%     14.96% # attempts to use FU when none available (Count)
system.cpu.statFuBusy::SimdFloatCvt                 0      0.00%     14.96% # attempts to use FU when none available (Count)
system.cpu.statFuBusy::SimdFloatDiv                 0      0.00%     14.96% # attempts to use FU when none available (Count)
system.cpu.statFuBusy::SimdFloatMisc                0      0.00%     14.96% # attempts to use FU when none available (Count)
system.cpu.statFuBusy::SimdFloatMult                0      0.00%     14.96% # attempts to use FU when none available (Count)
system.cpu.statFuBusy::SimdFloatMultAcc             0      0.00%     14.96% # attempts to use FU when none available (Count)
system.cpu.statFuBusy::SimdFloatSqrt                0      0.00%     14.96% # attempts to use FU when none available (Count)
system.cpu.statFuBusy::SimdReduceAdd                0      0.00%     14.96% # attempts to use FU when none available (Count)
system.cpu.statFuBusy::SimdReduceAlu                0      0.00%     14.96% # attempts to use FU when none available (Count)
system.cpu.statFuBusy::SimdReduceCmp                0      0.00%     14.96% # attempts to use FU when none available (Count)
system.cpu.statFuBusy::SimdFloatReduceAdd            0      0.00%     14.96% # attempts to use FU when none available (Count)
system.cpu.statFuBusy::SimdFloatReduceCmp            0      0.00%     14.96% # attempts to use FU when none available (Count)
system.cpu.statFuBusy::SimdAes                      0      0.00%     14.96% # attempts to use FU when none available (Count)
system.cpu.statFuBusy::SimdAesMix                   0      0.00%     14.96% # attempts to use FU when none available (Count)
system.cpu.statFuBusy::SimdSha1Hash                 0      0.00%     14.96% # attempts to use FU when none available (Count)
system.cpu.statFuBusy::SimdSha1Hash2                0      0.00%     14.96% # attempts to use FU when none available (Count)
system.cpu.statFuBusy::SimdSha256Hash               0      0.00%     14.96% # attempts to use FU when none available (Count)
system.cpu.statFuBusy::SimdSha256Hash2              0      0.00%     14.96% # attempts to use FU when none available (Count)
system.cpu.statFuBusy::SimdShaSigma2                0      0.00%     14.96% # attempts to use FU when none available (Count)
system.cpu.statFuBusy::SimdShaSigma3                0      0.00%     14.96% # attempts to use FU when none available (Count)
system.cpu.statFuBusy::SimdPredAlu                  0      0.00%     14.96% # attempts to use FU when none available (Count)
system.cpu.statFuBusy::MemRead               38154222     84.44%     99.41% # attempts to use FU when none available (Count)
system.cpu.statFuBusy::MemWrite                268607      0.59%    100.00% # attempts to use FU when none available (Count)
system.cpu.statFuBusy::FloatMemRead                 0      0.00%    100.00% # attempts to use FU when none available (Count)
system.cpu.statFuBusy::FloatMemWrite                0      0.00%    100.00% # attempts to use FU when none available (Count)
system.cpu.statFuBusy::IprAccess                    0      0.00%    100.00% # attempts to use FU when none available (Count)
system.cpu.statFuBusy::InstPrefetch                 0      0.00%    100.00% # attempts to use FU when none available (Count)
system.cpu.statIssuedInstType_0::No_OpClass          162      0.00%      0.00% # Number of instructions issued per FU type, per thread (Count)
system.cpu.statIssuedInstType_0::IntAlu      74139797     53.19%     53.19% # Number of instructions issued per FU type, per thread (Count)
system.cpu.statIssuedInstType_0::IntMult         8197      0.01%     53.19% # Number of instructions issued per FU type, per thread (Count)
system.cpu.statIssuedInstType_0::IntDiv           863      0.00%     53.19% # Number of instructions issued per FU type, per thread (Count)
system.cpu.statIssuedInstType_0::FloatAdd            0      0.00%     53.19% # Number of instructions issued per FU type, per thread (Count)
system.cpu.statIssuedInstType_0::FloatCmp            0      0.00%     53.19% # Number of instructions issued per FU type, per thread (Count)
system.cpu.statIssuedInstType_0::FloatCvt            0      0.00%     53.19% # Number of instructions issued per FU type, per thread (Count)
system.cpu.statIssuedInstType_0::FloatMult            0      0.00%     53.19% # Number of instructions issued per FU type, per thread (Count)
system.cpu.statIssuedInstType_0::FloatMultAcc            0      0.00%     53.19% # Number of instructions issued per FU type, per thread (Count)
system.cpu.statIssuedInstType_0::FloatDiv            0      0.00%     53.19% # Number of instructions issued per FU type, per thread (Count)
system.cpu.statIssuedInstType_0::FloatMisc            0      0.00%     53.19% # Number of instructions issued per FU type, per thread (Count)
system.cpu.statIssuedInstType_0::FloatSqrt            0      0.00%     53.19% # Number of instructions issued per FU type, per thread (Count)
system.cpu.statIssuedInstType_0::SimdAdd            0      0.00%     53.19% # Number of instructions issued per FU type, per thread (Count)
system.cpu.statIssuedInstType_0::SimdAddAcc            0      0.00%     53.19% # Number of instructions issued per FU type, per thread (Count)
system.cpu.statIssuedInstType_0::SimdAlu            0      0.00%     53.19% # Number of instructions issued per FU type, per thread (Count)
system.cpu.statIssuedInstType_0::SimdCmp            0      0.00%     53.19% # Number of instructions issued per FU type, per thread (Count)
system.cpu.statIssuedInstType_0::SimdCvt            0      0.00%     53.19% # Number of instructions issued per FU type, per thread (Count)
system.cpu.statIssuedInstType_0::SimdMisc            0      0.00%     53.19% # Number of instructions issued per FU type, per thread (Count)
system.cpu.statIssuedInstType_0::SimdMult            0      0.00%     53.19% # Number of instructions issued per FU type, per thread (Count)
system.cpu.statIssuedInstType_0::SimdMultAcc            0      0.00%     53.19% # Number of instructions issued per FU type, per thread (Count)
system.cpu.statIssuedInstType_0::SimdShift            0      0.00%     53.19% # Number of instructions issued per FU type, per thread (Count)
system.cpu.statIssuedInstType_0::SimdShiftAcc            0      0.00%     53.19% # Number of instructions issued per FU type, per thread (Count)
system.cpu.statIssuedInstType_0::SimdDiv            0      0.00%     53.19% # Number of instructions issued per FU type, per thread (Count)
system.cpu.statIssuedInstType_0::SimdSqrt            0      0.00%     53.19% # Number of instructions issued per FU type, per thread (Count)
system.cpu.statIssuedInstType_0::SimdFloatAdd            0      0.00%     53.19% # Number of instructions issued per FU type, per thread (Count)
system.cpu.statIssuedInstType_0::SimdFloatAlu            0      0.00%     53.19% # Number of instructions issued per FU type, per thread (Count)
system.cpu.statIssuedInstType_0::SimdFloatCmp            0      0.00%     53.19% # Number of instructions issued per FU type, per thread (Count)
system.cpu.statIssuedInstType_0::SimdFloatCvt            0      0.00%     53.19% # Number of instructions issued per FU type, per thread (Count)
system.cpu.statIssuedInstType_0::SimdFloatDiv            0      0.00%     53.19% # Number of instructions issued per FU type, per thread (Count)
system.cpu.statIssuedInstType_0::SimdFloatMisc            0      0.00%     53.19% # Number of instructions issued per FU type, per thread (Count)
system.cpu.statIssuedInstType_0::SimdFloatMult            0      0.00%     53.19% # Number of instructions issued per FU type, per thread (Count)
system.cpu.statIssuedInstType_0::SimdFloatMultAcc            0      0.00%     53.19% # Number of instructions issued per FU type, per thread (Count)
system.cpu.statIssuedInstType_0::SimdFloatSqrt            0      0.00%     53.19% # Number of instructions issued per FU type, per thread (Count)
system.cpu.statIssuedInstType_0::SimdReduceAdd            0      0.00%     53.19% # Number of instructions issued per FU type, per thread (Count)
system.cpu.statIssuedInstType_0::SimdReduceAlu            0      0.00%     53.19% # Number of instructions issued per FU type, per thread (Count)
system.cpu.statIssuedInstType_0::SimdReduceCmp            0      0.00%     53.19% # Number of instructions issued per FU type, per thread (Count)
system.cpu.statIssuedInstType_0::SimdFloatReduceAdd            0      0.00%     53.19% # Number of instructions issued per FU type, per thread (Count)
system.cpu.statIssuedInstType_0::SimdFloatReduceCmp            0      0.00%     53.19% # Number of instructions issued per FU type, per thread (Count)
system.cpu.statIssuedInstType_0::SimdAes            0      0.00%     53.19% # Number of instructions issued per FU type, per thread (Count)
system.cpu.statIssuedInstType_0::SimdAesMix            0      0.00%     53.19% # Number of instructions issued per FU type, per thread (Count)
system.cpu.statIssuedInstType_0::SimdSha1Hash            0      0.00%     53.19% # Number of instructions issued per FU type, per thread (Count)
system.cpu.statIssuedInstType_0::SimdSha1Hash2            0      0.00%     53.19% # Number of instructions issued per FU type, per thread (Count)
system.cpu.statIssuedInstType_0::SimdSha256Hash            0      0.00%     53.19% # Number of instructions issued per FU type, per thread (Count)
system.cpu.statIssuedInstType_0::SimdSha256Hash2            0      0.00%     53.19% # Number of instructions issued per FU type, per thread (Count)
system.cpu.statIssuedInstType_0::SimdShaSigma2            0      0.00%     53.19% # Number of instructions issued per FU type, per thread (Count)
system.cpu.statIssuedInstType_0::SimdShaSigma3            0      0.00%     53.19% # Number of instructions issued per FU type, per thread (Count)
system.cpu.statIssuedInstType_0::SimdPredAlu            0      0.00%     53.19% # Number of instructions issued per FU type, per thread (Count)
system.cpu.statIssuedInstType_0::MemRead     64097637     45.98%     99.18% # Number of instructions issued per FU type, per thread (Count)
system.cpu.statIssuedInstType_0::MemWrite      1145191      0.82%    100.00% # Number of instructions issued per FU type, per thread (Count)
system.cpu.statIssuedInstType_0::FloatMemRead            0      0.00%    100.00% # Number of instructions issued per FU type, per thread (Count)
system.cpu.statIssuedInstType_0::FloatMemWrite            0      0.00%    100.00% # Number of instructions issued per FU type, per thread (Count)
system.cpu.statIssuedInstType_0::IprAccess            0      0.00%    100.00% # Number of instructions issued per FU type, per thread (Count)
system.cpu.statIssuedInstType_0::InstPrefetch            0      0.00%    100.00% # Number of instructions issued per FU type, per thread (Count)
system.cpu.statIssuedInstType_0::total      139391847                       # Number of instructions issued per FU type, per thread (Count)
system.cpu.issueRate                         0.097375                       # Inst issue rate ((Count/Cycle))
system.cpu.fuBusy                            45183690                       # FU busy when requested (Count)
system.cpu.fuBusyRate                        0.324149                       # FU busy rate (busy events/executed inst) ((Count/Count))
system.cpu.intInstQueueReads               1756981552                       # Number of integer instruction queue reads (Count)
system.cpu.intInstQueueWrites               156810324                       # Number of integer instruction queue writes (Count)
system.cpu.intInstQueueWakeupAccesses       119092380                       # Number of integer instruction queue wakeup accesses (Count)
system.cpu.fpInstQueueReads                         0                       # Number of floating instruction queue reads (Count)
system.cpu.fpInstQueueWrites                        0                       # Number of floating instruction queue writes (Count)
system.cpu.fpInstQueueWakeupAccesses                0                       # Number of floating instruction queue wakeup accesses (Count)
system.cpu.vecInstQueueReads                      178                       # Number of vector instruction queue reads (Count)
system.cpu.vecInstQueueWrites                      64                       # Number of vector instruction queue writes (Count)
system.cpu.vecInstQueueWakeupAccesses              64                       # Number of vector instruction queue wakeup accesses (Count)
system.cpu.intAluAccesses                   184575261                       # Number of integer alu accesses (Count)
system.cpu.fpAluAccesses                            0                       # Number of floating point alu accesses (Count)
system.cpu.vecAluAccesses                         114                       # Number of vector alu accesses (Count)
system.cpu.numInsts                         119182485                       # Number of executed instructions (Count)
system.cpu.numLoadInsts                      43916887                       # Number of load instructions executed (Count)
system.cpu.numSquashedInsts                   1225866                       # Number of squashed instructions skipped in execute (Count)
system.cpu.numSwp                                   0                       # Number of swp insts executed (Count)
system.cpu.numNop                              527464                       # Number of nop insts executed (Count)
system.cpu.numRefs                           45047593                       # Number of memory reference insts executed (Count)
system.cpu.numBranches                       26336853                       # Number of branches executed (Count)
system.cpu.numStoreInsts                      1130706                       # Number of stores executed (Count)
system.cpu.numRate                           0.083257                       # Inst execution rate ((Count/Cycle))
system.cpu.timesIdled                            1865                       # Number of times that the entire CPU went into an idle state and unscheduled itself (Count)
system.cpu.idleCycles                          130858                       # Total number of cycles that the CPU has spent unscheduled due to idling (Cycle)
system.cpu.committedInsts                   116607047                       # Number of Instructions Simulated (Count)
system.cpu.committedOps                     117220669                       # Number of Ops (including micro ops) Simulated (Count)
system.cpu.cpi                              12.276291                       # CPI: Cycles Per Instruction ((Cycle/Count))
system.cpu.totalCpi                         12.276291                       # CPI: Total CPI of All Threads ((Cycle/Count))
system.cpu.ipc                               0.081458                       # IPC: Instructions Per Cycle ((Count/Cycle))
system.cpu.totalIpc                          0.081458                       # IPC: Total IPC of All Threads ((Count/Cycle))
system.cpu.intRegfileReads                  175523983                       # Number of integer regfile reads (Count)
system.cpu.intRegfileWrites                  66423795                       # Number of integer regfile writes (Count)
system.cpu.vecRegfileReads                         64                       # number of vector regfile reads (Count)
system.cpu.ccRegfileReads                    76352715                       # number of cc regfile reads (Count)
system.cpu.ccRegfileWrites                   76424676                       # number of cc regfile writes (Count)
system.cpu.miscRegfileReads                1673724556                       # number of misc regfile reads (Count)
system.cpu.miscRegfileWrites                    71393                       # number of misc regfile writes (Count)
system.cpu.MemDepUnit__0.insertedLoads       50262024                       # Number of loads inserted to the mem dependence unit. (Count)
system.cpu.MemDepUnit__0.insertedStores       1148636                       # Number of stores inserted to the mem dependence unit. (Count)
system.cpu.MemDepUnit__0.conflictingLoads        43624                       # Number of conflicting loads. (Count)
system.cpu.MemDepUnit__0.conflictingStores        29668                       # Number of conflicting stores. (Count)
system.cpu.MemDepUnit__1.insertedLoads              0                       # Number of loads inserted to the mem dependence unit. (Count)
system.cpu.MemDepUnit__1.insertedStores             0                       # Number of stores inserted to the mem dependence unit. (Count)
system.cpu.MemDepUnit__1.conflictingLoads            0                       # Number of conflicting loads. (Count)
system.cpu.MemDepUnit__1.conflictingStores            0                       # Number of conflicting stores. (Count)
system.cpu.MemDepUnit__2.insertedLoads              0                       # Number of loads inserted to the mem dependence unit. (Count)
system.cpu.MemDepUnit__2.insertedStores             0                       # Number of stores inserted to the mem dependence unit. (Count)
system.cpu.MemDepUnit__2.conflictingLoads            0                       # Number of conflicting loads. (Count)
system.cpu.MemDepUnit__2.conflictingStores            0                       # Number of conflicting stores. (Count)
system.cpu.MemDepUnit__3.insertedLoads              0                       # Number of loads inserted to the mem dependence unit. (Count)
system.cpu.MemDepUnit__3.insertedStores             0                       # Number of stores inserted to the mem dependence unit. (Count)
system.cpu.MemDepUnit__3.conflictingLoads            0                       # Number of conflicting loads. (Count)
system.cpu.MemDepUnit__3.conflictingStores            0                       # Number of conflicting stores. (Count)
system.cpu.branchPred.lookups                36895251                       # Number of BP lookups (Count)
system.cpu.branchPred.condPredicted          36515446                       # Number of conditional branches predicted (Count)
system.cpu.branchPred.condIncorrect            694782                       # Number of conditional branches incorrect (Count)
system.cpu.branchPred.BTBLookups             13474050                       # Number of BTB lookups (Count)
system.cpu.branchPred.BTBUpdates                61289                       # Number of BTB updates (Count)
system.cpu.branchPred.BTBHits                13438886                       # Number of BTB hits (Count)
system.cpu.branchPred.BTBHitRatio            0.997390                       # BTB Hit Ratio (Ratio)
system.cpu.branchPred.RASUsed                  144886                       # Number of times the RAS was used to get a target. (Count)
system.cpu.branchPred.RASIncorrect               2168                       # Number of incorrect RAS predictions. (Count)
system.cpu.branchPred.indirectLookups           15388                       # Number of indirect predictor lookups. (Count)
system.cpu.branchPred.indirectHits              13523                       # Number of indirect target hits. (Count)
system.cpu.branchPred.indirectMisses             1865                       # Number of indirect misses. (Count)
system.cpu.branchPred.indirectMispredicted          173                       # Number of mispredicted indirect branches. (Count)
system.cpu.commit.commitSquashedInsts        19095658                       # The number of squashed insts skipped by commit (Count)
system.cpu.commit.commitNonSpecStalls           39261                       # The number of times commit has been forced to stall to communicate backwards (Count)
system.cpu.commit.branchMispredicts            686281                       # The number of times a branch was mispredicted (Count)
system.cpu.commit.numCommittedDist::samples   1428712051                       # Number of insts commited each cycle (Count)
system.cpu.commit.numCommittedDist::mean     0.082414                       # Number of insts commited each cycle (Count)
system.cpu.commit.numCommittedDist::stdev     0.499580                       # Number of insts commited each cycle (Count)
system.cpu.commit.numCommittedDist::underflows            0      0.00%      0.00% # Number of insts commited each cycle (Count)
system.cpu.commit.numCommittedDist::0      1370059004     95.89%     95.89% # Number of insts commited each cycle (Count)
system.cpu.commit.numCommittedDist::1        32151804      2.25%     98.15% # Number of insts commited each cycle (Count)
system.cpu.commit.numCommittedDist::2        11107485      0.78%     98.92% # Number of insts commited each cycle (Count)
system.cpu.commit.numCommittedDist::3         8208178      0.57%     99.50% # Number of insts commited each cycle (Count)
system.cpu.commit.numCommittedDist::4           98670      0.01%     99.50% # Number of insts commited each cycle (Count)
system.cpu.commit.numCommittedDist::5         5874079      0.41%     99.92% # Number of insts commited each cycle (Count)
system.cpu.commit.numCommittedDist::6          231821      0.02%     99.93% # Number of insts commited each cycle (Count)
system.cpu.commit.numCommittedDist::7          248937      0.02%     99.95% # Number of insts commited each cycle (Count)
system.cpu.commit.numCommittedDist::8          732073      0.05%    100.00% # Number of insts commited each cycle (Count)
system.cpu.commit.numCommittedDist::overflows            0      0.00%    100.00% # Number of insts commited each cycle (Count)
system.cpu.commit.numCommittedDist::min_value            0                       # Number of insts commited each cycle (Count)
system.cpu.commit.numCommittedDist::max_value            8                       # Number of insts commited each cycle (Count)
system.cpu.commit.numCommittedDist::total   1428712051                       # Number of insts commited each cycle (Count)
system.cpu.commit.instsCommitted            117132830                       # Number of instructions committed (Count)
system.cpu.commit.opsCommitted              117746452                       # Number of ops (including micro ops) committed (Count)
system.cpu.commit.memRefs                    43334945                       # Number of memory references committed (Count)
system.cpu.commit.loads                      42213788                       # Number of loads committed (Count)
system.cpu.commit.amos                              6                       # Number of atomic instructions committed (Count)
system.cpu.commit.membars                       16308                       # Number of memory barriers committed (Count)
system.cpu.commit.branches                   26202061                       # Number of branches committed (Count)
system.cpu.commit.vectorInstructions               64                       # Number of committed Vector instructions. (Count)
system.cpu.commit.floating                          0                       # Number of committed floating point instructions. (Count)
system.cpu.commit.integer                   107788709                       # Number of committed integer instructions. (Count)
system.cpu.commit.functionCalls                110740                       # Number of function calls committed. (Count)
system.cpu.commit.committedInstType_0::No_OpClass            7      0.00%      0.00% # Class of committed instruction (Count)
system.cpu.commit.committedInstType_0::IntAlu     74402448     63.19%     63.19% # Class of committed instruction (Count)
system.cpu.commit.committedInstType_0::IntMult         8191      0.01%     63.20% # Class of committed instruction (Count)
system.cpu.commit.committedInstType_0::IntDiv          861      0.00%     63.20% # Class of committed instruction (Count)
system.cpu.commit.committedInstType_0::FloatAdd            0      0.00%     63.20% # Class of committed instruction (Count)
system.cpu.commit.committedInstType_0::FloatCmp            0      0.00%     63.20% # Class of committed instruction (Count)
system.cpu.commit.committedInstType_0::FloatCvt            0      0.00%     63.20% # Class of committed instruction (Count)
system.cpu.commit.committedInstType_0::FloatMult            0      0.00%     63.20% # Class of committed instruction (Count)
system.cpu.commit.committedInstType_0::FloatMultAcc            0      0.00%     63.20% # Class of committed instruction (Count)
system.cpu.commit.committedInstType_0::FloatDiv            0      0.00%     63.20% # Class of committed instruction (Count)
system.cpu.commit.committedInstType_0::FloatMisc            0      0.00%     63.20% # Class of committed instruction (Count)
system.cpu.commit.committedInstType_0::FloatSqrt            0      0.00%     63.20% # Class of committed instruction (Count)
system.cpu.commit.committedInstType_0::SimdAdd            0      0.00%     63.20% # Class of committed instruction (Count)
system.cpu.commit.committedInstType_0::SimdAddAcc            0      0.00%     63.20% # Class of committed instruction (Count)
system.cpu.commit.committedInstType_0::SimdAlu            0      0.00%     63.20% # Class of committed instruction (Count)
system.cpu.commit.committedInstType_0::SimdCmp            0      0.00%     63.20% # Class of committed instruction (Count)
system.cpu.commit.committedInstType_0::SimdCvt            0      0.00%     63.20% # Class of committed instruction (Count)
system.cpu.commit.committedInstType_0::SimdMisc            0      0.00%     63.20% # Class of committed instruction (Count)
system.cpu.commit.committedInstType_0::SimdMult            0      0.00%     63.20% # Class of committed instruction (Count)
system.cpu.commit.committedInstType_0::SimdMultAcc            0      0.00%     63.20% # Class of committed instruction (Count)
system.cpu.commit.committedInstType_0::SimdShift            0      0.00%     63.20% # Class of committed instruction (Count)
system.cpu.commit.committedInstType_0::SimdShiftAcc            0      0.00%     63.20% # Class of committed instruction (Count)
system.cpu.commit.committedInstType_0::SimdDiv            0      0.00%     63.20% # Class of committed instruction (Count)
system.cpu.commit.committedInstType_0::SimdSqrt            0      0.00%     63.20% # Class of committed instruction (Count)
system.cpu.commit.committedInstType_0::SimdFloatAdd            0      0.00%     63.20% # Class of committed instruction (Count)
system.cpu.commit.committedInstType_0::SimdFloatAlu            0      0.00%     63.20% # Class of committed instruction (Count)
system.cpu.commit.committedInstType_0::SimdFloatCmp            0      0.00%     63.20% # Class of committed instruction (Count)
system.cpu.commit.committedInstType_0::SimdFloatCvt            0      0.00%     63.20% # Class of committed instruction (Count)
system.cpu.commit.committedInstType_0::SimdFloatDiv            0      0.00%     63.20% # Class of committed instruction (Count)
system.cpu.commit.committedInstType_0::SimdFloatMisc            0      0.00%     63.20% # Class of committed instruction (Count)
system.cpu.commit.committedInstType_0::SimdFloatMult            0      0.00%     63.20% # Class of committed instruction (Count)
system.cpu.commit.committedInstType_0::SimdFloatMultAcc            0      0.00%     63.20% # Class of committed instruction (Count)
system.cpu.commit.committedInstType_0::SimdFloatSqrt            0      0.00%     63.20% # Class of committed instruction (Count)
system.cpu.commit.committedInstType_0::SimdReduceAdd            0      0.00%     63.20% # Class of committed instruction (Count)
system.cpu.commit.committedInstType_0::SimdReduceAlu            0      0.00%     63.20% # Class of committed instruction (Count)
system.cpu.commit.committedInstType_0::SimdReduceCmp            0      0.00%     63.20% # Class of committed instruction (Count)
system.cpu.commit.committedInstType_0::SimdFloatReduceAdd            0      0.00%     63.20% # Class of committed instruction (Count)
system.cpu.commit.committedInstType_0::SimdFloatReduceCmp            0      0.00%     63.20% # Class of committed instruction (Count)
system.cpu.commit.committedInstType_0::SimdAes            0      0.00%     63.20% # Class of committed instruction (Count)
system.cpu.commit.committedInstType_0::SimdAesMix            0      0.00%     63.20% # Class of committed instruction (Count)
system.cpu.commit.committedInstType_0::SimdSha1Hash            0      0.00%     63.20% # Class of committed instruction (Count)
system.cpu.commit.committedInstType_0::SimdSha1Hash2            0      0.00%     63.20% # Class of committed instruction (Count)
system.cpu.commit.committedInstType_0::SimdSha256Hash            0      0.00%     63.20% # Class of committed instruction (Count)
system.cpu.commit.committedInstType_0::SimdSha256Hash2            0      0.00%     63.20% # Class of committed instruction (Count)
system.cpu.commit.committedInstType_0::SimdShaSigma2            0      0.00%     63.20% # Class of committed instruction (Count)
system.cpu.commit.committedInstType_0::SimdShaSigma3            0      0.00%     63.20% # Class of committed instruction (Count)
system.cpu.commit.committedInstType_0::SimdPredAlu            0      0.00%     63.20% # Class of committed instruction (Count)
system.cpu.commit.committedInstType_0::MemRead     42213788     35.85%     99.05% # Class of committed instruction (Count)
system.cpu.commit.committedInstType_0::MemWrite      1121157      0.95%    100.00% # Class of committed instruction (Count)
system.cpu.commit.committedInstType_0::FloatMemRead            0      0.00%    100.00% # Class of committed instruction (Count)
system.cpu.commit.committedInstType_0::FloatMemWrite            0      0.00%    100.00% # Class of committed instruction (Count)
system.cpu.commit.committedInstType_0::IprAccess            0      0.00%    100.00% # Class of committed instruction (Count)
system.cpu.commit.committedInstType_0::InstPrefetch            0      0.00%    100.00% # Class of committed instruction (Count)
system.cpu.commit.committedInstType_0::total    117746452                       # Class of committed instruction (Count)
system.cpu.commit.commitEligibleSamples        732073                       # number cycles where commit BW limit reached (Cycle)
system.cpu.dcache.demandHits::cpu.data       13900998                       # number of demand (read+write) hits (Count)
system.cpu.dcache.demandHits::total          13900998                       # number of demand (read+write) hits (Count)
system.cpu.dcache.demandHitsAtPf::cpu.data       459771                       # number of demand (read+write) hits (Count)
system.cpu.dcache.demandHitsAtPf::total        459771                       # number of demand (read+write) hits (Count)
system.cpu.dcache.demandHitsAtPfAlloc::cpu.data      2022828                       # number of demand (read+write) hits (Count)
system.cpu.dcache.demandHitsAtPfAlloc::total      2022828                       # number of demand (read+write) hits (Count)
system.cpu.dcache.hitsAtPfCoverAccess::8     0.010223                       # hits at prefetch / demand accesses (Count)
system.cpu.dcache.hitsAtPfCoverAccess::total     0.010223                       # hits at prefetch / demand accesses (Count)
system.cpu.dcache.hitsAtPfAllocCoverAccess::8     0.044979                       # hits at prefetch alloc / demand accesses (Count)
system.cpu.dcache.hitsAtPfAllocCoverAccess::total     0.044979                       # hits at prefetch alloc / demand accesses (Count)
system.cpu.dcache.hitsPfRatio::8             4.399642                       # hits at prefetch alloc / hits at prefetch (Count)
system.cpu.dcache.hitsPfRatio::total         4.399642                       # hits at prefetch alloc / hits at prefetch (Count)
system.cpu.dcache.overallHits::cpu.data      13910980                       # number of overall hits (Count)
system.cpu.dcache.overallHits::total         13910980                       # number of overall hits (Count)
system.cpu.dcache.demandMisses::cpu.data     31071264                       # number of demand (read+write) misses (Count)
system.cpu.dcache.demandMisses::total        31071264                       # number of demand (read+write) misses (Count)
system.cpu.dcache.overallMisses::cpu.data     31071965                       # number of overall misses (Count)
system.cpu.dcache.overallMisses::total       31071965                       # number of overall misses (Count)
system.cpu.dcache.demandMissLatency::cpu.data 1881298389675                       # number of demand (read+write) miss ticks (Tick)
system.cpu.dcache.demandMissLatency::total 1881298389675                       # number of demand (read+write) miss ticks (Tick)
system.cpu.dcache.overallMissLatency::cpu.data 1881298389675                       # number of overall miss ticks (Tick)
system.cpu.dcache.overallMissLatency::total 1881298389675                       # number of overall miss ticks (Tick)
system.cpu.dcache.demandAccesses::cpu.data     44972262                       # number of demand (read+write) accesses (Count)
system.cpu.dcache.demandAccesses::total      44972262                       # number of demand (read+write) accesses (Count)
system.cpu.dcache.overallAccesses::cpu.data     44982945                       # number of overall (read+write) accesses (Count)
system.cpu.dcache.overallAccesses::total     44982945                       # number of overall (read+write) accesses (Count)
system.cpu.dcache.demandMissRate::cpu.data     0.690898                       # miss rate for demand accesses (Ratio)
system.cpu.dcache.demandMissRate::total      0.690898                       # miss rate for demand accesses (Ratio)
system.cpu.dcache.overallMissRate::cpu.data     0.690750                       # miss rate for overall accesses (Ratio)
system.cpu.dcache.overallMissRate::total     0.690750                       # miss rate for overall accesses (Ratio)
system.cpu.dcache.demandAvgMissLatency::cpu.data 60547.855075                       # average overall miss latency in ticks ((Tick/Count))
system.cpu.dcache.demandAvgMissLatency::total 60547.855075                       # average overall miss latency in ticks ((Tick/Count))
system.cpu.dcache.overallAvgMissLatency::cpu.data 60546.489083                       # average overall miss latency ((Tick/Count))
system.cpu.dcache.overallAvgMissLatency::total 60546.489083                       # average overall miss latency ((Tick/Count))
system.cpu.dcache.blockedCycles::no_mshrs       893623                       # number of cycles access was blocked (Cycle)
system.cpu.dcache.blockedCycles::no_targets        72749                       # number of cycles access was blocked (Cycle)
system.cpu.dcache.blockedCauses::no_mshrs        63458                       # number of times access was blocked (Count)
system.cpu.dcache.blockedCauses::no_targets          988                       # number of times access was blocked (Count)
system.cpu.dcache.avgBlocked::no_mshrs      14.082117                       # average number of cycles each access was blocked ((Cycle/Count))
system.cpu.dcache.avgBlocked::no_targets    73.632591                       # average number of cycles each access was blocked ((Cycle/Count))
system.cpu.dcache.writebacks::writebacks     10267518                       # number of writebacks (Count)
system.cpu.dcache.writebacks::total          10267518                       # number of writebacks (Count)
system.cpu.dcache.demandMshrHits::cpu.data     21375710                       # number of demand (read+write) MSHR hits (Count)
system.cpu.dcache.demandMshrHits::total      21375710                       # number of demand (read+write) MSHR hits (Count)
system.cpu.dcache.overallMshrHits::cpu.data     21375710                       # number of overall MSHR hits (Count)
system.cpu.dcache.overallMshrHits::total     21375710                       # number of overall MSHR hits (Count)
system.cpu.dcache.demandMshrHitsAtPf::cpu.data       110977                       # number of demand (read+write) MSHR hits (Count)
system.cpu.dcache.demandMshrHitsAtPf::total       110977                       # number of demand (read+write) MSHR hits (Count)
system.cpu.dcache.demandMshrMisses::cpu.data      9695554                       # number of demand (read+write) MSHR misses (Count)
system.cpu.dcache.demandMshrMisses::total      9695554                       # number of demand (read+write) MSHR misses (Count)
system.cpu.dcache.overallMshrMisses::cpu.data      9696254                       # number of overall MSHR misses (Count)
system.cpu.dcache.overallMshrMisses::cpu.dcache.prefetcher       571997                       # number of overall MSHR misses (Count)
system.cpu.dcache.overallMshrMisses::total     10268251                       # number of overall MSHR misses (Count)
system.cpu.dcache.overallMshrUncacheable::cpu.data          429                       # number of overall MSHR uncacheable misses (Count)
system.cpu.dcache.overallMshrUncacheable::total          429                       # number of overall MSHR uncacheable misses (Count)
system.cpu.dcache.demandMshrMissLatency::cpu.data 575456798475                       # number of demand (read+write) MSHR miss ticks (Tick)
system.cpu.dcache.demandMshrMissLatency::total 575456798475                       # number of demand (read+write) MSHR miss ticks (Tick)
system.cpu.dcache.overallMshrMissLatency::cpu.data 575480834875                       # number of overall MSHR miss ticks (Tick)
system.cpu.dcache.overallMshrMissLatency::cpu.dcache.prefetcher  34489325508                       # number of overall MSHR miss ticks (Tick)
system.cpu.dcache.overallMshrMissLatency::total 609970160383                       # number of overall MSHR miss ticks (Tick)
system.cpu.dcache.overallMshrUncacheableLatency::cpu.data     11720400                       # number of overall MSHR uncacheable ticks (Tick)
system.cpu.dcache.overallMshrUncacheableLatency::total     11720400                       # number of overall MSHR uncacheable ticks (Tick)
system.cpu.dcache.demandMshrMissRate::cpu.data     0.215590                       # mshr miss ratio for demand accesses (Ratio)
system.cpu.dcache.demandMshrMissRate::total     0.215590                       # mshr miss ratio for demand accesses (Ratio)
system.cpu.dcache.overallMshrMissRate::cpu.data     0.215554                       # mshr miss ratio for overall accesses (Ratio)
system.cpu.dcache.overallMshrMissRate::cpu.dcache.prefetcher          inf                       # mshr miss ratio for overall accesses (Ratio)
system.cpu.dcache.overallMshrMissRate::total     0.228270                       # mshr miss ratio for overall accesses (Ratio)
system.cpu.dcache.demandAvgMshrMissLatency::cpu.data 59352.647458                       # average overall mshr miss latency ((Tick/Count))
system.cpu.dcache.demandAvgMshrMissLatency::total 59352.647458                       # average overall mshr miss latency ((Tick/Count))
system.cpu.dcache.overallAvgMshrMissLatency::cpu.data 59350.841560                       # average overall mshr miss latency ((Tick/Count))
system.cpu.dcache.overallAvgMshrMissLatency::cpu.dcache.prefetcher 60296.339855                       # average overall mshr miss latency ((Tick/Count))
system.cpu.dcache.overallAvgMshrMissLatency::total 59403.510918                       # average overall mshr miss latency ((Tick/Count))
system.cpu.dcache.overallAvgMshrUncacheableLatency::cpu.data 27320.279720                       # average overall mshr uncacheable latency ((Tick/Count))
system.cpu.dcache.overallAvgMshrUncacheableLatency::total 27320.279720                       # average overall mshr uncacheable latency ((Tick/Count))
system.cpu.dcache.replacements               10267518                       # number of replacements (Count)
system.cpu.dcache.prefetchFills                461019                       # number of prefetch fills (Count)
system.cpu.dcache.prefetchHits                 459779                       # number of prefetch hits (Count)
system.cpu.dcache.HardPFReq.mshrMisses::cpu.dcache.prefetcher       571997                       # number of HardPFReq MSHR misses (Count)
system.cpu.dcache.HardPFReq.mshrMisses::total       571997                       # number of HardPFReq MSHR misses (Count)
system.cpu.dcache.HardPFReq.mshrMissLatency::cpu.dcache.prefetcher  34489325508                       # number of HardPFReq MSHR miss ticks (Tick)
system.cpu.dcache.HardPFReq.mshrMissLatency::total  34489325508                       # number of HardPFReq MSHR miss ticks (Tick)
system.cpu.dcache.HardPFReq.mshrMissRate::cpu.dcache.prefetcher          inf                       # mshr miss rate for HardPFReq accesses (Ratio)
system.cpu.dcache.HardPFReq.mshrMissRate::total          inf                       # mshr miss rate for HardPFReq accesses (Ratio)
system.cpu.dcache.HardPFReq.avgMshrMissLatency::cpu.dcache.prefetcher 60296.339855                       # average HardPFReq mshr miss latency ((Tick/Count))
system.cpu.dcache.HardPFReq.avgMshrMissLatency::total 60296.339855                       # average HardPFReq mshr miss latency ((Tick/Count))
system.cpu.dcache.LoadLockedReq.hits::cpu.data        10032                       # number of LoadLockedReq hits (Count)
system.cpu.dcache.LoadLockedReq.hits::total        10032                       # number of LoadLockedReq hits (Count)
system.cpu.dcache.LoadLockedReq.hitsAtPfAlloc::cpu.data         2127                       # number of LoadLockedReq hits (Count)
system.cpu.dcache.LoadLockedReq.hitsAtPfAlloc::total         2127                       # number of LoadLockedReq hits (Count)
system.cpu.dcache.LoadLockedReq.misses::cpu.data          844                       # number of LoadLockedReq misses (Count)
system.cpu.dcache.LoadLockedReq.misses::total          844                       # number of LoadLockedReq misses (Count)
system.cpu.dcache.LoadLockedReq.missLatency::cpu.data     33644800                       # number of LoadLockedReq miss ticks (Tick)
system.cpu.dcache.LoadLockedReq.missLatency::total     33644800                       # number of LoadLockedReq miss ticks (Tick)
system.cpu.dcache.LoadLockedReq.accesses::cpu.data        10876                       # number of LoadLockedReq accesses(hits+misses) (Count)
system.cpu.dcache.LoadLockedReq.accesses::total        10876                       # number of LoadLockedReq accesses(hits+misses) (Count)
system.cpu.dcache.LoadLockedReq.missRate::cpu.data     0.077602                       # miss rate for LoadLockedReq accesses (Ratio)
system.cpu.dcache.LoadLockedReq.missRate::total     0.077602                       # miss rate for LoadLockedReq accesses (Ratio)
system.cpu.dcache.LoadLockedReq.avgMissLatency::cpu.data 39863.507109                       # average LoadLockedReq miss latency ((Tick/Count))
system.cpu.dcache.LoadLockedReq.avgMissLatency::total 39863.507109                       # average LoadLockedReq miss latency ((Tick/Count))
system.cpu.dcache.LoadLockedReq.mshrHits::cpu.data          700                       # number of LoadLockedReq MSHR hits (Count)
system.cpu.dcache.LoadLockedReq.mshrHits::total          700                       # number of LoadLockedReq MSHR hits (Count)
system.cpu.dcache.LoadLockedReq.mshrHitsAtPf::8            1                       # number of LoadLockedReq MSHR hits at pfMSHR (Count)
system.cpu.dcache.LoadLockedReq.mshrHitsAtPf::total            1                       # number of LoadLockedReq MSHR hits at pfMSHR (Count)
system.cpu.dcache.LoadLockedReq.mshrMisses::cpu.data          144                       # number of LoadLockedReq MSHR misses (Count)
system.cpu.dcache.LoadLockedReq.mshrMisses::total          144                       # number of LoadLockedReq MSHR misses (Count)
system.cpu.dcache.LoadLockedReq.mshrMissLatency::cpu.data      8526400                       # number of LoadLockedReq MSHR miss ticks (Tick)
system.cpu.dcache.LoadLockedReq.mshrMissLatency::total      8526400                       # number of LoadLockedReq MSHR miss ticks (Tick)
system.cpu.dcache.LoadLockedReq.mshrMissRate::cpu.data     0.013240                       # mshr miss rate for LoadLockedReq accesses (Ratio)
system.cpu.dcache.LoadLockedReq.mshrMissRate::total     0.013240                       # mshr miss rate for LoadLockedReq accesses (Ratio)
system.cpu.dcache.LoadLockedReq.avgMshrMissLatency::cpu.data 59211.111111                       # average LoadLockedReq mshr miss latency ((Tick/Count))
system.cpu.dcache.LoadLockedReq.avgMshrMissLatency::total 59211.111111                       # average LoadLockedReq mshr miss latency ((Tick/Count))
system.cpu.dcache.ReadReq.hits::cpu.data     12875607                       # number of ReadReq hits (Count)
system.cpu.dcache.ReadReq.hits::total        12875607                       # number of ReadReq hits (Count)
system.cpu.dcache.ReadReq.hitsAtPf::cpu.data       459621                       # number of ReadReq hits (Count)
system.cpu.dcache.ReadReq.hitsAtPf::total       459621                       # number of ReadReq hits (Count)
system.cpu.dcache.ReadReq.hitsAtPfAlloc::cpu.data      2007775                       # number of ReadReq hits (Count)
system.cpu.dcache.ReadReq.hitsAtPfAlloc::total      2007775                       # number of ReadReq hits (Count)
system.cpu.dcache.ReadReq.misses::cpu.data     30986369                       # number of ReadReq misses (Count)
system.cpu.dcache.ReadReq.misses::total      30986369                       # number of ReadReq misses (Count)
system.cpu.dcache.ReadReq.missLatency::cpu.data 1878285928800                       # number of ReadReq miss ticks (Tick)
system.cpu.dcache.ReadReq.missLatency::total 1878285928800                       # number of ReadReq miss ticks (Tick)
system.cpu.dcache.ReadReq.accesses::cpu.data     43861976                       # number of ReadReq accesses(hits+misses) (Count)
system.cpu.dcache.ReadReq.accesses::total     43861976                       # number of ReadReq accesses(hits+misses) (Count)
system.cpu.dcache.ReadReq.missRate::cpu.data     0.706452                       # miss rate for ReadReq accesses (Ratio)
system.cpu.dcache.ReadReq.missRate::total     0.706452                       # miss rate for ReadReq accesses (Ratio)
system.cpu.dcache.ReadReq.avgMissLatency::cpu.data 60616.522342                       # average ReadReq miss latency ((Tick/Count))
system.cpu.dcache.ReadReq.avgMissLatency::total 60616.522342                       # average ReadReq miss latency ((Tick/Count))
system.cpu.dcache.ReadReq.mshrHits::cpu.data     21359701                       # number of ReadReq MSHR hits (Count)
system.cpu.dcache.ReadReq.mshrHits::total     21359701                       # number of ReadReq MSHR hits (Count)
system.cpu.dcache.ReadReq.mshrHitsAtPf::8       109966                       # number of ReadReq MSHR hits at pfMSHR (Count)
system.cpu.dcache.ReadReq.mshrHitsAtPf::total       109966                       # number of ReadReq MSHR hits at pfMSHR (Count)
system.cpu.dcache.ReadReq.mshrMisses::cpu.data      9626668                       # number of ReadReq MSHR misses (Count)
system.cpu.dcache.ReadReq.mshrMisses::total      9626668                       # number of ReadReq MSHR misses (Count)
system.cpu.dcache.ReadReq.mshrUncacheable::cpu.data          286                       # number of ReadReq MSHR uncacheable (Count)
system.cpu.dcache.ReadReq.mshrUncacheable::total          286                       # number of ReadReq MSHR uncacheable (Count)
system.cpu.dcache.ReadReq.mshrMissLatency::cpu.data 573361252400                       # number of ReadReq MSHR miss ticks (Tick)
system.cpu.dcache.ReadReq.mshrMissLatency::total 573361252400                       # number of ReadReq MSHR miss ticks (Tick)
system.cpu.dcache.ReadReq.mshrUncacheableLatency::cpu.data     11720400                       # number of ReadReq MSHR uncacheable ticks (Tick)
system.cpu.dcache.ReadReq.mshrUncacheableLatency::total     11720400                       # number of ReadReq MSHR uncacheable ticks (Tick)
system.cpu.dcache.ReadReq.mshrMissRate::cpu.data     0.219476                       # mshr miss rate for ReadReq accesses (Ratio)
system.cpu.dcache.ReadReq.mshrMissRate::total     0.219476                       # mshr miss rate for ReadReq accesses (Ratio)
system.cpu.dcache.ReadReq.avgMshrMissLatency::cpu.data 59559.678634                       # average ReadReq mshr miss latency ((Tick/Count))
system.cpu.dcache.ReadReq.avgMshrMissLatency::total 59559.678634                       # average ReadReq mshr miss latency ((Tick/Count))
system.cpu.dcache.ReadReq.avgMshrUncacheableLatency::cpu.data 40980.419580                       # average ReadReq mshr uncacheable latency ((Tick/Count))
system.cpu.dcache.ReadReq.avgMshrUncacheableLatency::total 40980.419580                       # average ReadReq mshr uncacheable latency ((Tick/Count))
system.cpu.dcache.SoftPFExReq.hits::cpu.data         8981                       # number of SoftPFExReq hits (Count)
system.cpu.dcache.SoftPFExReq.hits::total         8981                       # number of SoftPFExReq hits (Count)
system.cpu.dcache.SoftPFExReq.hitsAtPf::cpu.data            8                       # number of SoftPFExReq hits (Count)
system.cpu.dcache.SoftPFExReq.hitsAtPf::total            8                       # number of SoftPFExReq hits (Count)
system.cpu.dcache.SoftPFExReq.hitsAtPfAlloc::cpu.data         2115                       # number of SoftPFExReq hits (Count)
system.cpu.dcache.SoftPFExReq.hitsAtPfAlloc::total         2115                       # number of SoftPFExReq hits (Count)
system.cpu.dcache.SoftPFExReq.misses::cpu.data          700                       # number of SoftPFExReq misses (Count)
system.cpu.dcache.SoftPFExReq.misses::total          700                       # number of SoftPFExReq misses (Count)
system.cpu.dcache.SoftPFExReq.accesses::cpu.data         9681                       # number of SoftPFExReq accesses(hits+misses) (Count)
system.cpu.dcache.SoftPFExReq.accesses::total         9681                       # number of SoftPFExReq accesses(hits+misses) (Count)
system.cpu.dcache.SoftPFExReq.missRate::cpu.data     0.072307                       # miss rate for SoftPFExReq accesses (Ratio)
system.cpu.dcache.SoftPFExReq.missRate::total     0.072307                       # miss rate for SoftPFExReq accesses (Ratio)
system.cpu.dcache.SoftPFExReq.mshrMisses::cpu.data          699                       # number of SoftPFExReq MSHR misses (Count)
system.cpu.dcache.SoftPFExReq.mshrMisses::total          699                       # number of SoftPFExReq MSHR misses (Count)
system.cpu.dcache.SoftPFExReq.mshrMissLatency::cpu.data     24025200                       # number of SoftPFExReq MSHR miss ticks (Tick)
system.cpu.dcache.SoftPFExReq.mshrMissLatency::total     24025200                       # number of SoftPFExReq MSHR miss ticks (Tick)
system.cpu.dcache.SoftPFExReq.mshrMissRate::cpu.data     0.072203                       # mshr miss rate for SoftPFExReq accesses (Ratio)
system.cpu.dcache.SoftPFExReq.mshrMissRate::total     0.072203                       # mshr miss rate for SoftPFExReq accesses (Ratio)
system.cpu.dcache.SoftPFExReq.avgMshrMissLatency::cpu.data 34370.815451                       # average SoftPFExReq mshr miss latency ((Tick/Count))
system.cpu.dcache.SoftPFExReq.avgMshrMissLatency::total 34370.815451                       # average SoftPFExReq mshr miss latency ((Tick/Count))
system.cpu.dcache.SoftPFReq.hits::cpu.data         1001                       # number of SoftPFReq hits (Count)
system.cpu.dcache.SoftPFReq.hits::total          1001                       # number of SoftPFReq hits (Count)
system.cpu.dcache.SoftPFReq.misses::cpu.data            1                       # number of SoftPFReq misses (Count)
system.cpu.dcache.SoftPFReq.misses::total            1                       # number of SoftPFReq misses (Count)
system.cpu.dcache.SoftPFReq.accesses::cpu.data         1002                       # number of SoftPFReq accesses(hits+misses) (Count)
system.cpu.dcache.SoftPFReq.accesses::total         1002                       # number of SoftPFReq accesses(hits+misses) (Count)
system.cpu.dcache.SoftPFReq.missRate::cpu.data     0.000998                       # miss rate for SoftPFReq accesses (Ratio)
system.cpu.dcache.SoftPFReq.missRate::total     0.000998                       # miss rate for SoftPFReq accesses (Ratio)
system.cpu.dcache.SoftPFReq.mshrMisses::cpu.data            1                       # number of SoftPFReq MSHR misses (Count)
system.cpu.dcache.SoftPFReq.mshrMisses::total            1                       # number of SoftPFReq MSHR misses (Count)
system.cpu.dcache.SoftPFReq.mshrMissLatency::cpu.data        11200                       # number of SoftPFReq MSHR miss ticks (Tick)
system.cpu.dcache.SoftPFReq.mshrMissLatency::total        11200                       # number of SoftPFReq MSHR miss ticks (Tick)
system.cpu.dcache.SoftPFReq.mshrMissRate::cpu.data     0.000998                       # mshr miss rate for SoftPFReq accesses (Ratio)
system.cpu.dcache.SoftPFReq.mshrMissRate::total     0.000998                       # mshr miss rate for SoftPFReq accesses (Ratio)
system.cpu.dcache.SoftPFReq.avgMshrMissLatency::cpu.data        11200                       # average SoftPFReq mshr miss latency ((Tick/Count))
system.cpu.dcache.SoftPFReq.avgMshrMissLatency::total        11200                       # average SoftPFReq mshr miss latency ((Tick/Count))
system.cpu.dcache.StoreCondReq.hits::cpu.data        10722                       # number of StoreCondReq hits (Count)
system.cpu.dcache.StoreCondReq.hits::total        10722                       # number of StoreCondReq hits (Count)
system.cpu.dcache.StoreCondReq.hitsAtPfAlloc::cpu.data         2121                       # number of StoreCondReq hits (Count)
system.cpu.dcache.StoreCondReq.hitsAtPfAlloc::total         2121                       # number of StoreCondReq hits (Count)
system.cpu.dcache.StoreCondReq.accesses::cpu.data        10722                       # number of StoreCondReq accesses(hits+misses) (Count)
system.cpu.dcache.StoreCondReq.accesses::total        10722                       # number of StoreCondReq accesses(hits+misses) (Count)
system.cpu.dcache.SwapReq.hits::cpu.data            6                       # number of SwapReq hits (Count)
system.cpu.dcache.SwapReq.hits::total               6                       # number of SwapReq hits (Count)
system.cpu.dcache.SwapReq.accesses::cpu.data            6                       # number of SwapReq accesses(hits+misses) (Count)
system.cpu.dcache.SwapReq.accesses::total            6                       # number of SwapReq accesses(hits+misses) (Count)
system.cpu.dcache.WriteLineReq.misses::cpu.data        64192                       # number of WriteLineReq misses (Count)
system.cpu.dcache.WriteLineReq.misses::total        64192                       # number of WriteLineReq misses (Count)
system.cpu.dcache.WriteLineReq.missLatency::cpu.data   2000544505                       # number of WriteLineReq miss ticks (Tick)
system.cpu.dcache.WriteLineReq.missLatency::total   2000544505                       # number of WriteLineReq miss ticks (Tick)
system.cpu.dcache.WriteLineReq.accesses::cpu.data        64192                       # number of WriteLineReq accesses(hits+misses) (Count)
system.cpu.dcache.WriteLineReq.accesses::total        64192                       # number of WriteLineReq accesses(hits+misses) (Count)
system.cpu.dcache.WriteLineReq.missRate::cpu.data            1                       # miss rate for WriteLineReq accesses (Ratio)
system.cpu.dcache.WriteLineReq.missRate::total            1                       # miss rate for WriteLineReq accesses (Ratio)
system.cpu.dcache.WriteLineReq.avgMissLatency::cpu.data 31165.012852                       # average WriteLineReq miss latency ((Tick/Count))
system.cpu.dcache.WriteLineReq.avgMissLatency::total 31165.012852                       # average WriteLineReq miss latency ((Tick/Count))
system.cpu.dcache.WriteLineReq.mshrHits::cpu.data         1003                       # number of WriteLineReq MSHR hits (Count)
system.cpu.dcache.WriteLineReq.mshrHits::total         1003                       # number of WriteLineReq MSHR hits (Count)
system.cpu.dcache.WriteLineReq.mshrHitsAtPf::8         1003                       # number of WriteLineReq MSHR hits at pfMSHR (Count)
system.cpu.dcache.WriteLineReq.mshrHitsAtPf::total         1003                       # number of WriteLineReq MSHR hits at pfMSHR (Count)
system.cpu.dcache.WriteLineReq.mshrMisses::cpu.data        63189                       # number of WriteLineReq MSHR misses (Count)
system.cpu.dcache.WriteLineReq.mshrMisses::total        63189                       # number of WriteLineReq MSHR misses (Count)
system.cpu.dcache.WriteLineReq.mshrMissLatency::cpu.data   1839033305                       # number of WriteLineReq MSHR miss ticks (Tick)
system.cpu.dcache.WriteLineReq.mshrMissLatency::total   1839033305                       # number of WriteLineReq MSHR miss ticks (Tick)
system.cpu.dcache.WriteLineReq.mshrMissRate::cpu.data     0.984375                       # mshr miss rate for WriteLineReq accesses (Ratio)
system.cpu.dcache.WriteLineReq.mshrMissRate::total     0.984375                       # mshr miss rate for WriteLineReq accesses (Ratio)
system.cpu.dcache.WriteLineReq.avgMshrMissLatency::cpu.data 29103.693760                       # average WriteLineReq mshr miss latency ((Tick/Count))
system.cpu.dcache.WriteLineReq.avgMshrMissLatency::total 29103.693760                       # average WriteLineReq mshr miss latency ((Tick/Count))
system.cpu.dcache.WriteReq.hits::cpu.data      1025391                       # number of WriteReq hits (Count)
system.cpu.dcache.WriteReq.hits::total        1025391                       # number of WriteReq hits (Count)
system.cpu.dcache.WriteReq.hitsAtPf::cpu.data          150                       # number of WriteReq hits (Count)
system.cpu.dcache.WriteReq.hitsAtPf::total          150                       # number of WriteReq hits (Count)
system.cpu.dcache.WriteReq.hitsAtPfAlloc::cpu.data        15053                       # number of WriteReq hits (Count)
system.cpu.dcache.WriteReq.hitsAtPfAlloc::total        15053                       # number of WriteReq hits (Count)
system.cpu.dcache.WriteReq.misses::cpu.data        20703                       # number of WriteReq misses (Count)
system.cpu.dcache.WriteReq.misses::total        20703                       # number of WriteReq misses (Count)
system.cpu.dcache.WriteReq.missLatency::cpu.data   1011916370                       # number of WriteReq miss ticks (Tick)
system.cpu.dcache.WriteReq.missLatency::total   1011916370                       # number of WriteReq miss ticks (Tick)
system.cpu.dcache.WriteReq.accesses::cpu.data      1046094                       # number of WriteReq accesses(hits+misses) (Count)
system.cpu.dcache.WriteReq.accesses::total      1046094                       # number of WriteReq accesses(hits+misses) (Count)
system.cpu.dcache.WriteReq.missRate::cpu.data     0.019791                       # miss rate for WriteReq accesses (Ratio)
system.cpu.dcache.WriteReq.missRate::total     0.019791                       # miss rate for WriteReq accesses (Ratio)
system.cpu.dcache.WriteReq.avgMissLatency::cpu.data 48877.765058                       # average WriteReq miss latency ((Tick/Count))
system.cpu.dcache.WriteReq.avgMissLatency::total 48877.765058                       # average WriteReq miss latency ((Tick/Count))
system.cpu.dcache.WriteReq.mshrHits::cpu.data        15006                       # number of WriteReq MSHR hits (Count)
system.cpu.dcache.WriteReq.mshrHits::total        15006                       # number of WriteReq MSHR hits (Count)
system.cpu.dcache.WriteReq.mshrHitsAtPf::8            8                       # number of WriteReq MSHR hits at pfMSHR (Count)
system.cpu.dcache.WriteReq.mshrHitsAtPf::total            8                       # number of WriteReq MSHR hits at pfMSHR (Count)
system.cpu.dcache.WriteReq.mshrMisses::cpu.data         5697                       # number of WriteReq MSHR misses (Count)
system.cpu.dcache.WriteReq.mshrMisses::total         5697                       # number of WriteReq MSHR misses (Count)
system.cpu.dcache.WriteReq.mshrUncacheable::cpu.data          143                       # number of WriteReq MSHR uncacheable (Count)
system.cpu.dcache.WriteReq.mshrUncacheable::total          143                       # number of WriteReq MSHR uncacheable (Count)
system.cpu.dcache.WriteReq.mshrMissLatency::cpu.data    256512770                       # number of WriteReq MSHR miss ticks (Tick)
system.cpu.dcache.WriteReq.mshrMissLatency::total    256512770                       # number of WriteReq MSHR miss ticks (Tick)
system.cpu.dcache.WriteReq.mshrMissRate::cpu.data     0.005446                       # mshr miss rate for WriteReq accesses (Ratio)
system.cpu.dcache.WriteReq.mshrMissRate::total     0.005446                       # mshr miss rate for WriteReq accesses (Ratio)
system.cpu.dcache.WriteReq.avgMshrMissLatency::cpu.data 45025.938213                       # average WriteReq mshr miss latency ((Tick/Count))
system.cpu.dcache.WriteReq.avgMshrMissLatency::total 45025.938213                       # average WriteReq mshr miss latency ((Tick/Count))
system.cpu.dcache.power_state.pwrStateResidencyTicks::UNDEFINED 1321658810800                       # Cumulative time (in ticks) in various power states (Tick)
system.cpu.dcache.prefetcher.demandMshrMisses      9695554                       # demands not covered by prefetchs (Count)
system.cpu.dcache.prefetcher.demandMshrHitsAtPf       110977                       # demands hit in mshr allocated by prefetchs (Count)
system.cpu.dcache.prefetcher.pfIssued         4820263                       # number of hwpf issued (Count)
system.cpu.dcache.prefetcher.pfUnused            1253                       # number of HardPF blocks evicted w/o reference (Count)
system.cpu.dcache.prefetcher.pfUseful          459779                       # number of useful prefetch (Count)
system.cpu.dcache.prefetcher.pfUsefulButMiss            0                       # number of hit on prefetch but cache block is not in an usable state (Count)
system.cpu.dcache.prefetcher.pf_cosumed      0.055709                       # pf_cosumed of the prefetcher (Count)
system.cpu.dcache.prefetcher.pf_effective     0.997830                       # pf_effective of the prefetcher (Count)
system.cpu.dcache.prefetcher.pf_timely       0.805561                       # pf_timely of the prefetcher (Count)
system.cpu.dcache.prefetcher.accuracy_cache     0.803814                       # accuracy_cache of the prefetcher (Count)
system.cpu.dcache.prefetcher.accuracy_prefetcher     0.999743                       # accuracy_prefetcher of the prefetcher (Count)
system.cpu.dcache.prefetcher.pfHitInCache      3972512                       # number of prefetches hitting in cache (Count)
system.cpu.dcache.prefetcher.pfHitInMSHR       275753                       # number of prefetches hitting in a MSHR (Count)
system.cpu.dcache.prefetcher.pfHitInWB              1                       # number of prefetches hit in the Write Buffer (Count)
system.cpu.dcache.prefetcher.pfLate           4248266                       # number of late prefetches (hitting in cache, MSHR or WB) (Count)
system.cpu.dcache.prefetcher.pfLateRate      0.881335                       # number of late prefetches (hitting in cache, MSHR or WB) (Count)
system.cpu.dcache.prefetcher.pfIdentified      6225968                       # number of prefetch candidates identified (Count)
system.cpu.dcache.prefetcher.pfBufferHit      4421778                       # number of redundant prefetches already in prefetch queue (Count)
system.cpu.dcache.prefetcher.pfInCache              0                       # number of redundant prefetches already in cache/mshr dropped (Count)
system.cpu.dcache.prefetcher.pfRemovedDemand       167067                       # number of prefetches dropped due to a demand for the same address (Count)
system.cpu.dcache.prefetcher.pfRemovedFull            0                       # number of prefetches dropped due to prefetch queue size (Count)
system.cpu.dcache.prefetcher.pfSpanPage        257168                       # number of prefetches that crossed the page (Count)
system.cpu.dcache.prefetcher.pfUsefulSpanPage        10012                       # number of prefetches that is useful and crossed the page (Count)
system.cpu.dcache.prefetcher.pfTransFailed      4129946                       # number of pfq empty and translation not avaliable immediately when there is a chance for prefetch (Count)
system.cpu.dcache.prefetcher.dmp_pfIdentified      7993413                       # number of DMP prefetch candidates identified (Count)
system.cpu.dcache.prefetcher.dmp_dataFill       952961                       # number of DMP prefetch candidates identified (Count)
system.cpu.dcache.prefetcher.power_state.pwrStateResidencyTicks::UNDEFINED 1321658810800                       # Cumulative time (in ticks) in various power states (Tick)
system.cpu.dcache.tags.tagsInUse                  512                       # Average ticks per tags in use ((Tick/Count))
system.cpu.dcache.tags.totalRefs             46447280                       # Total number of references to valid blocks. (Count)
system.cpu.dcache.tags.sampledRefs           10267518                       # Sample count of references to valid blocks. (Count)
system.cpu.dcache.tags.avgRefs               4.523711                       # Average number of references to valid blocks. ((Count/Count))
system.cpu.dcache.tags.warmupTick                   0                       # The tick when the warmup percentage was hit. (Tick)
system.cpu.dcache.tags.occupancies::cpu.data   478.419022                       # Average occupied blocks per tick, per requestor ((Count/Tick))
system.cpu.dcache.tags.occupancies::cpu.dcache.prefetcher    33.580978                       # Average occupied blocks per tick, per requestor ((Count/Tick))
system.cpu.dcache.tags.avgOccs::cpu.data     0.934412                       # Average percentage of cache occupancy ((Ratio/Tick))
system.cpu.dcache.tags.avgOccs::cpu.dcache.prefetcher     0.065588                       # Average percentage of cache occupancy ((Ratio/Tick))
system.cpu.dcache.tags.avgOccs::total               1                       # Average percentage of cache occupancy ((Ratio/Tick))
system.cpu.dcache.tags.occupanciesTaskId::1022           42                       # Occupied blocks per task id (Count)
system.cpu.dcache.tags.occupanciesTaskId::1024          470                       # Occupied blocks per task id (Count)
system.cpu.dcache.tags.ageTaskId_1022::0            7                       # Occupied blocks per task id, per block age (Count)
system.cpu.dcache.tags.ageTaskId_1022::1           35                       # Occupied blocks per task id, per block age (Count)
system.cpu.dcache.tags.ageTaskId_1024::0          159                       # Occupied blocks per task id, per block age (Count)
system.cpu.dcache.tags.ageTaskId_1024::1          311                       # Occupied blocks per task id, per block age (Count)
system.cpu.dcache.tags.ratioOccsTaskId::1022     0.082031                       # Ratio of occupied blocks and all blocks, per task id (Ratio)
system.cpu.dcache.tags.ratioOccsTaskId::1024     0.917969                       # Ratio of occupied blocks and all blocks, per task id (Ratio)
system.cpu.dcache.tags.tagAccesses          402084006                       # Number of tag accesses (Count)
system.cpu.dcache.tags.dataAccesses         402084006                       # Number of data accesses (Count)
system.cpu.dcache.tags.power_state.pwrStateResidencyTicks::UNDEFINED 1321658810800                       # Cumulative time (in ticks) in various power states (Tick)
system.cpu.decode.idleCycles                 17859956                       # Number of cycles decode is idle (Cycle)
system.cpu.decode.blockedCycles            1361045333                       # Number of cycles decode is blocked (Cycle)
system.cpu.decode.runCycles                  27098429                       # Number of cycles decode is running (Cycle)
system.cpu.decode.unblockCycles              24676147                       # Number of cycles decode is unblocking (Cycle)
system.cpu.decode.squashCycles                 691337                       # Number of cycles decode is squashing (Cycle)
system.cpu.decode.branchResolved             11490848                       # Number of times decode resolved a branch (Count)
system.cpu.decode.branchMispred                  8518                       # Number of times decode detected a branch misprediction (Count)
system.cpu.decode.decodedInsts              140582791                       # Number of instructions handled by decode (Count)
system.cpu.decode.squashedInsts                838412                       # Number of squashed instructions handled by decode (Count)
system.cpu.fetch.icacheStallCycles             734054                       # Number of cycles fetch is stalled on an Icache miss (Cycle)
system.cpu.fetch.insts                      163480904                       # Number of instructions fetch has processed (Count)
system.cpu.fetch.branches                    36895251                       # Number of branches that fetch encountered (Count)
system.cpu.fetch.predictedBranches           13597295                       # Number of branches that fetch has predicted taken (Count)
system.cpu.fetch.cycles                    1429715352                       # Number of cycles fetch has run and was not squashing or blocked (Cycle)
system.cpu.fetch.squashCycles                 1399698                       # Number of cycles fetch has spent squashing (Cycle)
system.cpu.fetch.tlbCycles                       5972                       # Number of cycles fetch has spent waiting for tlb (Cycle)
system.cpu.fetch.miscStallCycles               120276                       # Number of cycles fetch has spent waiting on interrupts, or bad addresses, or out of MSHRs (Cycle)
system.cpu.fetch.pendingTrapStallCycles         94854                       # Number of stall cycles due to pending traps (Cycle)
system.cpu.fetch.pendingQuiesceStallCycles          306                       # Number of stall cycles due to pending quiesce instructions (Cycle)
system.cpu.fetch.icacheWaitRetryStallCycles          539                       # Number of stall cycles due to full MSHR (Cycle)
system.cpu.fetch.cacheLines                  51618561                       # Number of cache lines fetched (Count)
system.cpu.fetch.icacheSquashes                   900                       # Number of outstanding Icache misses that were squashed (Count)
system.cpu.fetch.tlbSquashes                       27                       # Number of outstanding ITLB misses that were squashed (Count)
system.cpu.fetch.nisnDist::samples         1431371202                       # Number of instructions fetched each cycle (Total) (Count)
[...]
system.membus.pktCount_system.l2.mem_side_port::system.realview.gic.pio          864                       # Packet count per connected requestor and responder (Count)
system.membus.pktCount_system.l2.mem_side_port::system.mem_ctrls.port     31253386                       # Packet count per connected requestor and responder (Count)
system.membus.pktCount_system.l2.mem_side_port::total     31255102                       # Packet count per connected requestor and responder (Count)
system.membus.pktCount::total                31255102                       # Packet count per connected requestor and responder (Count)
system.membus.pktSize_system.l2.mem_side_port::system.bridge.cpu_side_port          852                       # Cumulative packet size per connected requestor and responder (Byte)
system.membus.pktSize_system.l2.mem_side_port::system.realview.gic.pio         1728                       # Cumulative packet size per connected requestor and responder (Byte)
system.membus.pktSize_system.l2.mem_side_port::system.mem_ctrls.port    669890304                       # Cumulative packet size per connected requestor and responder (Byte)
system.membus.pktSize_system.l2.mem_side_port::total    669892884                       # Cumulative packet size per connected requestor and responder (Byte)
system.membus.pktSize::total                669892884                       # Cumulative packet size per connected requestor and responder (Byte)
system.membus.snoops                                0                       # Total snoops (Count)
system.membus.snoopTraffic                          0                       # Total snoop traffic (Byte)
system.membus.snoopFanout::samples           12441045                       # Request fanout histogram (Count)
system.membus.snoopFanout::mean                     0                       # Request fanout histogram (Count)
system.membus.snoopFanout::stdev                    0                       # Request fanout histogram (Count)
system.membus.snoopFanout::underflows               0      0.00%      0.00% # Request fanout histogram (Count)
system.membus.snoopFanout::0                 12441045    100.00%    100.00% # Request fanout histogram (Count)
system.membus.snoopFanout::1                        0      0.00%    100.00% # Request fanout histogram (Count)
system.membus.snoopFanout::2                        0      0.00%    100.00% # Request fanout histogram (Count)
system.membus.snoopFanout::overflows                0      0.00%    100.00% # Request fanout histogram (Count)
system.membus.snoopFanout::min_value                0                       # Request fanout histogram (Count)
system.membus.snoopFanout::max_value                0                       # Request fanout histogram (Count)
system.membus.snoopFanout::total             12441045                       # Request fanout histogram (Count)
system.membus.badaddr_responder.power_state.pwrStateResidencyTicks::UNDEFINED 1326386504800                       # Cumulative time (in ticks) in various power states (Tick)
system.membus.power_state.pwrStateResidencyTicks::UNDEFINED 1326386504800                       # Cumulative time (in ticks) in various power states (Tick)
system.membus.reqLayer0.occupancy              842839                       # Layer occupancy (ticks) (Tick)
system.membus.reqLayer0.utilization               0.0                       # Layer utilization (Ratio)
system.membus.reqLayer12.occupancy             759600                       # Layer occupancy (ticks) (Tick)
system.membus.reqLayer12.utilization              0.0                       # Layer utilization (Ratio)
system.membus.reqLayer15.occupancy        32249652083                       # Layer occupancy (ticks) (Tick)
system.membus.reqLayer15.utilization              0.1                       # Layer utilization (Ratio)
system.membus.respLayer2.occupancy        51871690000                       # Layer occupancy (ticks) (Tick)
system.membus.respLayer2.utilization              0.1                       # Layer utilization (Ratio)
system.membus.snoop_filter.totRequests       22899028                       # Total number of requests made to the snoop filter. (Count)
system.membus.snoop_filter.hitSingleRequests     10458873                       # Number of requests hitting in the snoop filter with a single holder of the requested data. (Count)
system.membus.snoop_filter.hitMultiRequests            0                       # Number of requests hitting in the snoop filter with multiple (>1) holders of the requested data. (Count)
system.membus.snoop_filter.totSnoops                0                       # Total number of snoops made to the snoop filter. (Count)
system.membus.snoop_filter.hitSingleSnoops            0                       # Number of snoops hitting in the snoop filter with a single holder of the requested data. (Count)
system.membus.snoop_filter.hitMultiSnoops            0                       # Number of snoops hitting in the snoop filter with multiple (>1) holders of the requested data. (Count)
system.pci_ide.disks.IdeDisk.dmaReadFullPages            0                       # Number of full page size DMA reads (not PRD). (Count)
system.pci_ide.disks.IdeDisk.dmaReadBytes            0                       # Number of bytes transfered via DMA reads (not PRD). (Byte)
system.pci_ide.disks.IdeDisk.dmaReadTxs             0                       # Number of DMA read transactions (not PRD). (Count)
system.pci_ide.disks.IdeDisk.dmaWriteFullPages            0                       # Number of full page size DMA writes. (Count)
system.pci_ide.disks.IdeDisk.dmaWriteBytes            0                       # Number of bytes transfered via DMA writes. (Byte)
system.pci_ide.disks.IdeDisk.dmaWriteTxs            0                       # Number of DMA write transactions. (Count)
system.pci_ide.power_state.pwrStateResidencyTicks::UNDEFINED 1326386504800                       # Cumulative time (in ticks) in various power states (Tick)
system.realview.bootmem.power_state.pwrStateResidencyTicks::UNDEFINED 1326386504800                       # Cumulative time (in ticks) in various power states (Tick)
system.realview.clock24MHz.clock                41667                       # Clock period in ticks (Tick)
system.realview.clock32KHz.clock             31250000                       # Clock period in ticks (Tick)
system.realview.dcc.osc_cpu.clock               16667                       # Clock period in ticks (Tick)
system.realview.dcc.osc_ddr.clock               25000                       # Clock period in ticks (Tick)
system.realview.dcc.osc_hsbm.clock              25000                       # Clock period in ticks (Tick)
system.realview.dcc.osc_pxl.clock               42105                       # Clock period in ticks (Tick)
system.realview.dcc.osc_smb.clock               20000                       # Clock period in ticks (Tick)
system.realview.dcc.osc_sys.clock               16667                       # Clock period in ticks (Tick)
system.realview.el2_watchdog.power_state.pwrStateResidencyTicks::UNDEFINED 1326386504800                       # Cumulative time (in ticks) in various power states (Tick)
system.realview.energy_ctrl.power_state.pwrStateResidencyTicks::UNDEFINED 1326386504800                       # Cumulative time (in ticks) in various power states (Tick)
system.realview.flash0.power_state.pwrStateResidencyTicks::UNDEFINED 1326386504800                       # Cumulative time (in ticks) in various power states (Tick)
system.realview.flash1.power_state.pwrStateResidencyTicks::UNDEFINED 1326386504800                       # Cumulative time (in ticks) in various power states (Tick)
system.realview.generic_timer_mem.frames0.power_state.pwrStateResidencyTicks::UNDEFINED 1326386504800                       # Cumulative time (in ticks) in various power states (Tick)
system.realview.generic_timer_mem.frames1.power_state.pwrStateResidencyTicks::UNDEFINED 1326386504800                       # Cumulative time (in ticks) in various power states (Tick)
system.realview.generic_timer_mem.power_state.pwrStateResidencyTicks::UNDEFINED 1326386504800                       # Cumulative time (in ticks) in various power states (Tick)
system.realview.gic.power_state.pwrStateResidencyTicks::UNDEFINED 1326386504800                       # Cumulative time (in ticks) in various power states (Tick)
system.realview.gicv2m.power_state.pwrStateResidencyTicks::UNDEFINED 1326386504800                       # Cumulative time (in ticks) in various power states (Tick)
system.realview.io_voltage.voltage           3.300000                       # Voltage in Volts (Volt)
system.realview.kmi0.power_state.pwrStateResidencyTicks::UNDEFINED 1326386504800                       # Cumulative time (in ticks) in various power states (Tick)
system.realview.kmi1.power_state.pwrStateResidencyTicks::UNDEFINED 1326386504800                       # Cumulative time (in ticks) in various power states (Tick)
system.realview.mcc.osc_clcd.clock              42105                       # Clock period in ticks (Tick)
system.realview.mcc.osc_mcc.clock               20000                       # Clock period in ticks (Tick)
system.realview.mcc.osc_peripheral.clock        41667                       # Clock period in ticks (Tick)
system.realview.mcc.osc_system_bus.clock        41667                       # Clock period in ticks (Tick)
system.realview.non_trusted_sram.power_state.pwrStateResidencyTicks::UNDEFINED 1326386504800                       # Cumulative time (in ticks) in various power states (Tick)
system.realview.pci_host.power_state.pwrStateResidencyTicks::UNDEFINED 1326386504800                       # Cumulative time (in ticks) in various power states (Tick)
system.realview.pwr_ctrl.power_state.pwrStateResidencyTicks::UNDEFINED 1326386504800                       # Cumulative time (in ticks) in various power states (Tick)
system.realview.realview_io.power_state.pwrStateResidencyTicks::UNDEFINED 1326386504800                       # Cumulative time (in ticks) in various power states (Tick)
system.realview.rtc.power_state.pwrStateResidencyTicks::UNDEFINED 1326386504800                       # Cumulative time (in ticks) in various power states (Tick)
system.realview.system_watchdog.power_state.pwrStateResidencyTicks::UNDEFINED 1326386504800                       # Cumulative time (in ticks) in various power states (Tick)
system.realview.trusted_dram.power_state.pwrStateResidencyTicks::UNDEFINED 1326386504800                       # Cumulative time (in ticks) in various power states (Tick)
system.realview.trusted_sram.power_state.pwrStateResidencyTicks::UNDEFINED 1326386504800                       # Cumulative time (in ticks) in various power states (Tick)
system.realview.trusted_watchdog.power_state.pwrStateResidencyTicks::UNDEFINED 1326386504800                       # Cumulative time (in ticks) in various power states (Tick)
system.realview.uart0.power_state.pwrStateResidencyTicks::UNDEFINED 1326386504800                       # Cumulative time (in ticks) in various power states (Tick)
system.realview.uart1.power_state.pwrStateResidencyTicks::UNDEFINED 1326386504800                       # Cumulative time (in ticks) in various power states (Tick)
system.realview.uart2.power_state.pwrStateResidencyTicks::UNDEFINED 1326386504800                       # Cumulative time (in ticks) in various power states (Tick)
system.realview.uart3.power_state.pwrStateResidencyTicks::UNDEFINED 1326386504800                       # Cumulative time (in ticks) in various power states (Tick)
system.realview.vgic.power_state.pwrStateResidencyTicks::UNDEFINED 1326386504800                       # Cumulative time (in ticks) in various power states (Tick)
system.realview.vio0.power_state.pwrStateResidencyTicks::UNDEFINED 1326386504800                       # Cumulative time (in ticks) in various power states (Tick)
system.realview.vio1.power_state.pwrStateResidencyTicks::UNDEFINED 1326386504800                       # Cumulative time (in ticks) in various power states (Tick)
system.realview.vram.power_state.pwrStateResidencyTicks::UNDEFINED 1326386504800                       # Cumulative time (in ticks) in various power states (Tick)
system.realview.watchdog.power_state.pwrStateResidencyTicks::UNDEFINED 1326386504800                       # Cumulative time (in ticks) in various power states (Tick)
system.tol2bus.transDist::ReadReq             5648805                       # Transaction distribution (Count)
system.tol2bus.transDist::ReadResp           15900822                       # Transaction distribution (Count)
system.tol2bus.transDist::WriteReq                371                       # Transaction distribution (Count)
system.tol2bus.transDist::WriteResp               371                       # Transaction distribution (Count)
system.tol2bus.transDist::WritebackDirty       210032                       # Transaction distribution (Count)
system.tol2bus.transDist::WritebackClean     10209036                       # Transaction distribution (Count)
system.tol2bus.transDist::CleanEvict         10600365                       # Transaction distribution (Count)
system.tol2bus.transDist::UpgradeReq              913                       # Transaction distribution (Count)
system.tol2bus.transDist::UpgradeResp             913                       # Transaction distribution (Count)
system.tol2bus.transDist::ReadExReq              8476                       # Transaction distribution (Count)
system.tol2bus.transDist::ReadExResp             8476                       # Transaction distribution (Count)
system.tol2bus.transDist::ReadCleanReq          15036                       # Transaction distribution (Count)
system.tol2bus.transDist::ReadSharedReq      10236980                       # Transaction distribution (Count)
system.tol2bus.transDist::CleanSharedReq          192                       # Transaction distribution (Count)
system.tol2bus.transDist::InvalidateReq         65608                       # Transaction distribution (Count)
system.tol2bus.transDist::InvalidateResp        65608                       # Transaction distribution (Count)
system.tol2bus.pktCount_system.cpu.icache.mem_side_port::system.l2.cpu_side_port        45110                       # Packet count per connected requestor and responder (Count)
system.tol2bus.pktCount_system.cpu.dcache.mem_side_port::system.l2.cpu_side_port     30936926                       # Packet count per connected requestor and responder (Count)
system.tol2bus.pktCount_system.cpu.mmu.itb_walker.port::system.l2.cpu_side_port         2799                       # Packet count per connected requestor and responder (Count)
system.tol2bus.pktCount_system.cpu.mmu.dtb_walker.port::system.l2.cpu_side_port     11288967                       # Packet count per connected requestor and responder (Count)
system.tol2bus.pktCount::total               42273802                       # Packet count per connected requestor and responder (Count)
system.tol2bus.pktSize_system.cpu.icache.mem_side_port::system.l2.cpu_side_port      1924736                       # Cumulative packet size per connected requestor and responder (Byte)
system.tol2bus.pktSize_system.cpu.dcache.mem_side_port::system.l2.cpu_side_port   1315619860                       # Cumulative packet size per connected requestor and responder (Byte)
system.tol2bus.pktSize_system.cpu.mmu.itb_walker.port::system.l2.cpu_side_port        10760                       # Cumulative packet size per connected requestor and responder (Byte)
system.tol2bus.pktSize_system.cpu.mmu.dtb_walker.port::system.l2.cpu_side_port     45136824                       # Cumulative packet size per connected requestor and responder (Byte)
system.tol2bus.pktSize::total              1362692180                       # Cumulative packet size per connected requestor and responder (Byte)
system.tol2bus.snoops                        10698202                       # Total snoops (Count)
system.tol2bus.snoopTraffic                   5988848                       # Total snoop traffic (Byte)
system.tol2bus.snoopFanout::samples          26669714                       # Request fanout histogram (Count)
system.tol2bus.snoopFanout::mean             0.009692                       # Request fanout histogram (Count)
system.tol2bus.snoopFanout::stdev            0.097968                       # Request fanout histogram (Count)
system.tol2bus.snoopFanout::underflows              0      0.00%      0.00% # Request fanout histogram (Count)
system.tol2bus.snoopFanout::0                26411243     99.03%     99.03% # Request fanout histogram (Count)
system.tol2bus.snoopFanout::1                  258470      0.97%    100.00% # Request fanout histogram (Count)
system.tol2bus.snoopFanout::2                       1      0.00%    100.00% # Request fanout histogram (Count)
system.tol2bus.snoopFanout::overflows               0      0.00%    100.00% # Request fanout histogram (Count)
system.tol2bus.snoopFanout::min_value               0                       # Request fanout histogram (Count)
system.tol2bus.snoopFanout::max_value               2                       # Request fanout histogram (Count)
system.tol2bus.snoopFanout::total            26669714                       # Request fanout histogram (Count)
system.tol2bus.power_state.pwrStateResidencyTicks::UNDEFINED 1326386504800                       # Cumulative time (in ticks) in various power states (Tick)
system.tol2bus.reqLayer0.occupancy        21121913304                       # Layer occupancy (ticks) (Tick)
system.tol2bus.reqLayer0.utilization              0.0                       # Layer utilization (Ratio)
system.tol2bus.respLayer0.occupancy          18047193                       # Layer occupancy (ticks) (Tick)
system.tol2bus.respLayer0.utilization             0.0                       # Layer utilization (Ratio)
system.tol2bus.respLayer1.occupancy       12321889553                       # Layer occupancy (ticks) (Tick)
system.tol2bus.respLayer1.utilization             0.0                       # Layer utilization (Ratio)
system.tol2bus.respLayer2.occupancy           1165700                       # Layer occupancy (ticks) (Tick)
system.tol2bus.respLayer2.utilization             0.0                       # Layer utilization (Ratio)
system.tol2bus.respLayer3.occupancy        4517501929                       # Layer occupancy (ticks) (Tick)
system.tol2bus.respLayer3.utilization             0.0                       # Layer utilization (Ratio)
system.tol2bus.snoop_filter.totRequests      20658228                       # Total number of requests made to the snoop filter. (Count)
system.tol2bus.snoop_filter.hitSingleRequests     10331936                       # Number of requests hitting in the snoop filter with a single holder of the requested data. (Count)
system.tol2bus.snoop_filter.hitMultiRequests           23                       # Number of requests hitting in the snoop filter with multiple (>1) holders of the requested data. (Count)
system.tol2bus.snoop_filter.totSnoops          253528                       # Total number of snoops made to the snoop filter. (Count)
system.tol2bus.snoop_filter.hitSingleSnoops       253527                       # Number of snoops hitting in the snoop filter with a single holder of the requested data. (Count)
system.tol2bus.snoop_filter.hitMultiSnoops            1                       # Number of snoops hitting in the snoop filter with multiple (>1) holders of the requested data. (Count)
system.voltage_domain.voltage                       1                       # Voltage in Volts (Volt)
system.workload.inst.arm                            0                       # number of arm instructions executed (Count)
system.workload.inst.quiesce                        0                       # number of quiesce instructions executed (Count)

---------- End Simulation Statistics   ----------
