
---------- Begin Simulation Statistics ----------
simSeconds                                   0.457032                       # Number of seconds simulated (Second)
simTicks                                 457032130800                       # Number of ticks simulated (Tick)
finalTick                                1375063475600                       # Number of ticks from beginning of simulation (restored from checkpoints and never reset) (Tick)
simFreq                                  1000000000000                       # The number of ticks per simulated second ((Tick/Second))
hostSeconds                                   5924.50                       # Real time elapsed on the host (Second)
hostTickRate                                 77142754                       # The number of ticks simulated per host second (ticks/s) ((Tick/Second))
hostMemory                                    9151348                       # Number of bytes of host memory used (Byte)
simInsts                                    696973892                       # Number of instructions simulated (Count)
simOps                                      781193981                       # Number of ops (including micro ops) simulated (Count)
hostInstRate                                   117643                       # Simulator instruction rate (inst/s) ((Count/Second))
hostOpRate                                     131858                       # Simulator op (including micro ops) rate (op/s) ((Count/Second))
system.bridge.power_state.pwrStateResidencyTicks::UNDEFINED 1375063475600                       # Cumulative time (in ticks) in various power states (Tick)
system.clk_domain.clock                          1000                       # Clock period in ticks (Tick)
system.cpu.numCycles                       1142580327                       # Number of cpu cycles simulated (Cycle)
system.cpu.numWorkItemsStarted                      0                       # Number of work items this cpu started (Count)
system.cpu.numWorkItemsCompleted                    0                       # Number of work items this cpu completed (Count)
system.cpu.instsAdded                       135270366                       # Number of instructions added to the IQ (excludes non-spec) (Count)
system.cpu.nonSpecInstsAdded                     7497                       # Number of non-speculative instructions added to the IQ (Count)
system.cpu.instsIssued                      121816993                       # Number of instructions issued (Count)
system.cpu.squashedInstsIssued                1384475                       # Number of squashed instructions issued (Count)
system.cpu.squashedInstsExamined             18516443                       # Number of squashed instructions iterated over during squash; mainly for profiling (Count)
system.cpu.squashedOperandsExamined          31375850                       # Number of squashed operands that are examined and possibly removed from graph (Count)
system.cpu.squashedNonSpecRemoved                 497                       # Number of squashed non-spec instructions that were removed (Count)
system.cpu.numIssuedDist::samples          1142534797                       # Number of insts issued each cycle (Count)
system.cpu.numIssuedDist::mean               0.106620                       # Number of insts issued each cycle (Count)
system.cpu.numIssuedDist::stdev              0.429226                       # Number of insts issued each cycle (Count)
system.cpu.numIssuedDist::underflows                0      0.00%      0.00% # Number of insts issued each cycle (Count)
system.cpu.numIssuedDist::0                1058450993     92.64%     92.64% # Number of insts issued each cycle (Count)
system.cpu.numIssuedDist::1                  59445477      5.20%     97.84% # Number of insts issued each cycle (Count)
system.cpu.numIssuedDist::2                  11548428      1.01%     98.85% # Number of insts issued each cycle (Count)
system.cpu.numIssuedDist::3                  13084939      1.15%    100.00% # Number of insts issued each cycle (Count)
system.cpu.numIssuedDist::4                      4957      0.00%    100.00% # Number of insts issued each cycle (Count)
system.cpu.numIssuedDist::5                         3      0.00%    100.00% # Number of insts issued each cycle (Count)
system.cpu.numIssuedDist::6                         0      0.00%    100.00% # Number of insts issued each cycle (Count)
system.cpu.numIssuedDist::7                         0      0.00%    100.00% # Number of insts issued each cycle (Count)
system.cpu.numIssuedDist::8                         0      0.00%    100.00% # Number of insts issued each cycle (Count)
system.cpu.numIssuedDist::overflows                 0      0.00%    100.00% # Number of insts issued each cycle (Count)
system.cpu.numIssuedDist::min_value                 0                       # Number of insts issued each cycle (Count)
system.cpu.numIssuedDist::max_value                 5                       # Number of insts issued each cycle (Count)
system.cpu.numIssuedDist::total            1142534797                       # Number of insts issued each cycle (Count)
system.cpu.statFuBusy::No_OpClass                   0      0.00%      0.00% # attempts to use FU when none available (Count)
system.cpu.statFuBusy::IntAlu                 5789559     16.81%     16.81% # attempts to use FU when none available (Count)
system.cpu.statFuBusy::IntMult                   1926      0.01%     16.82% # attempts to use FU when none available (Count)
system.cpu.statFuBusy::IntDiv                    3297      0.01%     16.83% # attempts to use FU when none available (Count)
system.cpu.statFuBusy::FloatAdd                     0      0.00%     16.83% # attempts to use FU when none available (Count)
system.cpu.statFuBusy::FloatCmp                     0      0.00%     16.83% # attempts to use FU when none available (Count)
system.cpu.statFuBusy::FloatCvt                     0      0.00%     16.83% # attempts to use FU when none available (Count)
system.cpu.statFuBusy::FloatMult                    0      0.00%     16.83% # attempts to use FU when none available (Count)
system.cpu.statFuBusy::FloatMultAcc                 0      0.00%     16.83% # attempts to use FU when none available (Count)
system.cpu.statFuBusy::FloatDiv                     0      0.00%     16.83% # attempts to use FU when none available (Count)
system.cpu.statFuBusy::FloatMisc                    0      0.00%     16.83% # attempts to use FU when none available (Count)
system.cpu.statFuBusy::FloatSqrt                    0      0.00%     16.83% # attempts to use FU when none available (Count)
system.cpu.statFuBusy::SimdAdd                      0      0.00%     16.83% # attempts to use FU when none available (Count)
system.cpu.statFuBusy::SimdAddAcc                   0      0.00%     16.83% # attempts to use FU when none available (Count)
system.cpu.statFuBusy::SimdAlu                      0      0.00%     16.83% # attempts to use FU when none available (Count)
system.cpu.statFuBusy::SimdCmp                      0      0.00%     16.83% # attempts to use FU when none available (Count)
system.cpu.statFuBusy::SimdCvt                      0      0.00%     16.83% # attempts to use FU when none available (Count)
system.cpu.statFuBusy::SimdMisc                     0      0.00%     16.83% # attempts to use FU when none available (Count)
system.cpu.statFuBusy::SimdMult                     0      0.00%     16.83% # attempts to use FU when none available (Count)
system.cpu.statFuBusy::SimdMultAcc                  0      0.00%     16.83% # attempts to use FU when none available (Count)
system.cpu.statFuBusy::SimdShift                    0      0.00%     16.83% # attempts to use FU when none available (Count)
system.cpu.statFuBusy::SimdShiftAcc                 0      0.00%     16.83% # attempts to use FU when none available (Count)
system.cpu.statFuBusy::SimdDiv                      0      0.00%     16.83% # attempts to use FU when none available (Count)
system.cpu.statFuBusy::SimdSqrt                     0      0.00%     16.83% # attempts to use FU when none available (Count)
system.cpu.statFuBusy::SimdFloatAdd                 0      0.00%     16.83% # attempts to use FU when none available (Count)
system.cpu.statFuBusy::SimdFloatAlu                 0      0.00%     16.83% # attempts to use FU when none available (Count)
system.cpu.statFuBusy::SimdFloatCmp                 0      0.00%     16.83% # attempts to use FU when none available (Count)
system.cpu.statFuBusy::SimdFloatCvt                 0      0.00%     16.83% # attempts to use FU when none available (Count)
system.cpu.statFuBusy::SimdFloatDiv                 0      0.00%     16.83% # attempts to use FU when none available (Count)
system.cpu.statFuBusy::SimdFloatMisc                0      0.00%     16.83% # attempts to use FU when none available (Count)
system.cpu.statFuBusy::SimdFloatMult                0      0.00%     16.83% # attempts to use FU when none available (Count)
system.cpu.statFuBusy::SimdFloatMultAcc             0      0.00%     16.83% # attempts to use FU when none available (Count)
system.cpu.statFuBusy::SimdFloatSqrt                0      0.00%     16.83% # attempts to use FU when none available (Count)
system.cpu.statFuBusy::SimdReduceAdd                0      0.00%     16.83% # attempts to use FU when none available (Count)
system.cpu.statFuBusy::SimdReduceAlu                0      0.00%     16.83% # attempts to use FU when none available (Count)
system.cpu.statFuBusy::SimdReduceCmp                0      0.00%     16.83% # attempts to use FU when none available (Count)
system.cpu.statFuBusy::SimdFloatReduceAdd            0      0.00%     16.83% # attempts to use FU when none available (Count)
system.cpu.statFuBusy::SimdFloatReduceCmp            0      0.00%     16.83% # attempts to use FU when none available (Count)
system.cpu.statFuBusy::SimdAes                      0      0.00%     16.83% # attempts to use FU when none available (Count)
system.cpu.statFuBusy::SimdAesMix                   0      0.00%     16.83% # attempts to use FU when none available (Count)
system.cpu.statFuBusy::SimdSha1Hash                 0      0.00%     16.83% # attempts to use FU when none available (Count)
system.cpu.statFuBusy::SimdSha1Hash2                0      0.00%     16.83% # attempts to use FU when none available (Count)
system.cpu.statFuBusy::SimdSha256Hash               0      0.00%     16.83% # attempts to use FU when none available (Count)
system.cpu.statFuBusy::SimdSha256Hash2              0      0.00%     16.83% # attempts to use FU when none available (Count)
system.cpu.statFuBusy::SimdShaSigma2                0      0.00%     16.83% # attempts to use FU when none available (Count)
system.cpu.statFuBusy::SimdShaSigma3                0      0.00%     16.83% # attempts to use FU when none available (Count)
system.cpu.statFuBusy::SimdPredAlu                  0      0.00%     16.83% # attempts to use FU when none available (Count)
system.cpu.statFuBusy::MemRead               28593381     83.03%     99.86% # attempts to use FU when none available (Count)
system.cpu.statFuBusy::MemWrite                 48552      0.14%    100.00% # attempts to use FU when none available (Count)
system.cpu.statFuBusy::FloatMemRead                 0      0.00%    100.00% # attempts to use FU when none available (Count)
system.cpu.statFuBusy::FloatMemWrite                0      0.00%    100.00% # attempts to use FU when none available (Count)
system.cpu.statFuBusy::IprAccess                    0      0.00%    100.00% # attempts to use FU when none available (Count)
system.cpu.statFuBusy::InstPrefetch                 0      0.00%    100.00% # attempts to use FU when none available (Count)
system.cpu.statIssuedInstType_0::No_OpClass          114      0.00%      0.00% # Number of instructions issued per FU type, per thread (Count)
system.cpu.statIssuedInstType_0::IntAlu      67428688     55.35%     55.35% # Number of instructions issued per FU type, per thread (Count)
system.cpu.statIssuedInstType_0::IntMult         4030      0.00%     55.36% # Number of instructions issued per FU type, per thread (Count)
system.cpu.statIssuedInstType_0::IntDiv           693      0.00%     55.36% # Number of instructions issued per FU type, per thread (Count)
system.cpu.statIssuedInstType_0::FloatAdd            0      0.00%     55.36% # Number of instructions issued per FU type, per thread (Count)
system.cpu.statIssuedInstType_0::FloatCmp            0      0.00%     55.36% # Number of instructions issued per FU type, per thread (Count)
system.cpu.statIssuedInstType_0::FloatCvt            0      0.00%     55.36% # Number of instructions issued per FU type, per thread (Count)
system.cpu.statIssuedInstType_0::FloatMult            0      0.00%     55.36% # Number of instructions issued per FU type, per thread (Count)
system.cpu.statIssuedInstType_0::FloatMultAcc            0      0.00%     55.36% # Number of instructions issued per FU type, per thread (Count)
system.cpu.statIssuedInstType_0::FloatDiv            0      0.00%     55.36% # Number of instructions issued per FU type, per thread (Count)
system.cpu.statIssuedInstType_0::FloatMisc            0      0.00%     55.36% # Number of instructions issued per FU type, per thread (Count)
system.cpu.statIssuedInstType_0::FloatSqrt            0      0.00%     55.36% # Number of instructions issued per FU type, per thread (Count)
system.cpu.statIssuedInstType_0::SimdAdd            0      0.00%     55.36% # Number of instructions issued per FU type, per thread (Count)
system.cpu.statIssuedInstType_0::SimdAddAcc            0      0.00%     55.36% # Number of instructions issued per FU type, per thread (Count)
system.cpu.statIssuedInstType_0::SimdAlu            0      0.00%     55.36% # Number of instructions issued per FU type, per thread (Count)
system.cpu.statIssuedInstType_0::SimdCmp            0      0.00%     55.36% # Number of instructions issued per FU type, per thread (Count)
system.cpu.statIssuedInstType_0::SimdCvt            0      0.00%     55.36% # Number of instructions issued per FU type, per thread (Count)
system.cpu.statIssuedInstType_0::SimdMisc            0      0.00%     55.36% # Number of instructions issued per FU type, per thread (Count)
system.cpu.statIssuedInstType_0::SimdMult            0      0.00%     55.36% # Number of instructions issued per FU type, per thread (Count)
system.cpu.statIssuedInstType_0::SimdMultAcc            0      0.00%     55.36% # Number of instructions issued per FU type, per thread (Count)
system.cpu.statIssuedInstType_0::SimdShift            0      0.00%     55.36% # Number of instructions issued per FU type, per thread (Count)
system.cpu.statIssuedInstType_0::SimdShiftAcc            0      0.00%     55.36% # Number of instructions issued per FU type, per thread (Count)
system.cpu.statIssuedInstType_0::SimdDiv            0      0.00%     55.36% # Number of instructions issued per FU type, per thread (Count)
system.cpu.statIssuedInstType_0::SimdSqrt            0      0.00%     55.36% # Number of instructions issued per FU type, per thread (Count)
system.cpu.statIssuedInstType_0::SimdFloatAdd            0      0.00%     55.36% # Number of instructions issued per FU type, per thread (Count)
system.cpu.statIssuedInstType_0::SimdFloatAlu            0      0.00%     55.36% # Number of instructions issued per FU type, per thread (Count)
system.cpu.statIssuedInstType_0::SimdFloatCmp            0      0.00%     55.36% # Number of instructions issued per FU type, per thread (Count)
system.cpu.statIssuedInstType_0::SimdFloatCvt            0      0.00%     55.36% # Number of instructions issued per FU type, per thread (Count)
system.cpu.statIssuedInstType_0::SimdFloatDiv            0      0.00%     55.36% # Number of instructions issued per FU type, per thread (Count)
system.cpu.statIssuedInstType_0::SimdFloatMisc            0      0.00%     55.36% # Number of instructions issued per FU type, per thread (Count)
system.cpu.statIssuedInstType_0::SimdFloatMult            0      0.00%     55.36% # Number of instructions issued per FU type, per thread (Count)
system.cpu.statIssuedInstType_0::SimdFloatMultAcc            0      0.00%     55.36% # Number of instructions issued per FU type, per thread (Count)
system.cpu.statIssuedInstType_0::SimdFloatSqrt            0      0.00%     55.36% # Number of instructions issued per FU type, per thread (Count)
system.cpu.statIssuedInstType_0::SimdReduceAdd            0      0.00%     55.36% # Number of instructions issued per FU type, per thread (Count)
system.cpu.statIssuedInstType_0::SimdReduceAlu            0      0.00%     55.36% # Number of instructions issued per FU type, per thread (Count)
system.cpu.statIssuedInstType_0::SimdReduceCmp            0      0.00%     55.36% # Number of instructions issued per FU type, per thread (Count)
system.cpu.statIssuedInstType_0::SimdFloatReduceAdd            0      0.00%     55.36% # Number of instructions issued per FU type, per thread (Count)
system.cpu.statIssuedInstType_0::SimdFloatReduceCmp            0      0.00%     55.36% # Number of instructions issued per FU type, per thread (Count)
system.cpu.statIssuedInstType_0::SimdAes            0      0.00%     55.36% # Number of instructions issued per FU type, per thread (Count)
system.cpu.statIssuedInstType_0::SimdAesMix            0      0.00%     55.36% # Number of instructions issued per FU type, per thread (Count)
system.cpu.statIssuedInstType_0::SimdSha1Hash            0      0.00%     55.36% # Number of instructions issued per FU type, per thread (Count)
system.cpu.statIssuedInstType_0::SimdSha1Hash2            0      0.00%     55.36% # Number of instructions issued per FU type, per thread (Count)
system.cpu.statIssuedInstType_0::SimdSha256Hash            0      0.00%     55.36% # Number of instructions issued per FU type, per thread (Count)
system.cpu.statIssuedInstType_0::SimdSha256Hash2            0      0.00%     55.36% # Number of instructions issued per FU type, per thread (Count)
system.cpu.statIssuedInstType_0::SimdShaSigma2            0      0.00%     55.36% # Number of instructions issued per FU type, per thread (Count)
system.cpu.statIssuedInstType_0::SimdShaSigma3            0      0.00%     55.36% # Number of instructions issued per FU type, per thread (Count)
system.cpu.statIssuedInstType_0::SimdPredAlu            0      0.00%     55.36% # Number of instructions issued per FU type, per thread (Count)
system.cpu.statIssuedInstType_0::MemRead     54277575     44.56%     99.91% # Number of instructions issued per FU type, per thread (Count)
system.cpu.statIssuedInstType_0::MemWrite       105893      0.09%    100.00% # Number of instructions issued per FU type, per thread (Count)
system.cpu.statIssuedInstType_0::FloatMemRead            0      0.00%    100.00% # Number of instructions issued per FU type, per thread (Count)
system.cpu.statIssuedInstType_0::FloatMemWrite            0      0.00%    100.00% # Number of instructions issued per FU type, per thread (Count)
system.cpu.statIssuedInstType_0::IprAccess            0      0.00%    100.00% # Number of instructions issued per FU type, per thread (Count)
system.cpu.statIssuedInstType_0::InstPrefetch            0      0.00%    100.00% # Number of instructions issued per FU type, per thread (Count)
system.cpu.statIssuedInstType_0::total      121816993                       # Number of instructions issued per FU type, per thread (Count)
system.cpu.issueRate                         0.106616                       # Inst issue rate ((Count/Cycle))
system.cpu.fuBusy                            34436715                       # FU busy when requested (Count)
system.cpu.fuBusyRate                        0.282692                       # FU busy rate (busy events/executed inst) ((Count/Count))
system.cpu.intInstQueueReads               1421989789                       # Number of integer instruction queue reads (Count)
system.cpu.intInstQueueWrites               153794486                       # Number of integer instruction queue writes (Count)
system.cpu.intInstQueueWakeupAccesses       119414144                       # Number of integer instruction queue wakeup accesses (Count)
system.cpu.fpInstQueueReads                         0                       # Number of floating instruction queue reads (Count)
system.cpu.fpInstQueueWrites                        0                       # Number of floating instruction queue writes (Count)
system.cpu.fpInstQueueWakeupAccesses                0                       # Number of floating instruction queue wakeup accesses (Count)
system.cpu.vecInstQueueReads                      183                       # Number of vector instruction queue reads (Count)
system.cpu.vecInstQueueWrites                      69                       # Number of vector instruction queue writes (Count)
system.cpu.vecInstQueueWakeupAccesses              64                       # Number of vector instruction queue wakeup accesses (Count)
system.cpu.intAluAccesses                   156253478                       # Number of integer alu accesses (Count)
system.cpu.fpAluAccesses                            0                       # Number of floating point alu accesses (Count)
system.cpu.vecAluAccesses                         116                       # Number of vector alu accesses (Count)
system.cpu.numInsts                         119779930                       # Number of executed instructions (Count)
system.cpu.numLoadInsts                      52244662                       # Number of load instructions executed (Count)
system.cpu.numSquashedInsts                   1143040                       # Number of squashed instructions skipped in execute (Count)
system.cpu.numSwp                                   0                       # Number of swp insts executed (Count)
system.cpu.numNop                                1975                       # Number of nop insts executed (Count)
system.cpu.numRefs                           52349598                       # Number of memory reference insts executed (Count)
system.cpu.numBranches                       25313994                       # Number of branches executed (Count)
system.cpu.numStoreInsts                       104936                       # Number of stores executed (Count)
system.cpu.numRate                           0.104833                       # Inst execution rate ((Count/Cycle))
system.cpu.timesIdled                             482                       # Number of times that the entire CPU went into an idle state and unscheduled itself (Count)
system.cpu.idleCycles                           45530                       # Total number of cycles that the CPU has spent unscheduled due to idling (Cycle)
system.cpu.committedInsts                   116631780                       # Number of Instructions Simulated (Count)
system.cpu.committedOps                     116761424                       # Number of Ops (including micro ops) Simulated (Count)
system.cpu.cpi                               9.796475                       # CPI: Cycles Per Instruction ((Cycle/Count))
system.cpu.totalCpi                          9.796475                       # CPI: Total CPI of All Threads ((Cycle/Count))
system.cpu.ipc                               0.102078                       # IPC: Instructions Per Cycle ((Count/Cycle))
system.cpu.totalIpc                          0.102078                       # IPC: Total IPC of All Threads ((Count/Cycle))
system.cpu.intRegfileReads                  154952717                       # Number of integer regfile reads (Count)
system.cpu.intRegfileWrites                  69430553                       # Number of integer regfile writes (Count)
system.cpu.vecRegfileReads                         64                       # number of vector regfile reads (Count)
system.cpu.ccRegfileReads                    74193603                       # number of cc regfile reads (Count)
system.cpu.ccRegfileWrites                   74298993                       # number of cc regfile writes (Count)
system.cpu.miscRegfileReads                1188728614                       # number of misc regfile reads (Count)
system.cpu.miscRegfileWrites                     7522                       # number of misc regfile writes (Count)
system.cpu.MemDepUnit__0.insertedLoads       57571840                       # Number of loads inserted to the mem dependence unit. (Count)
system.cpu.MemDepUnit__0.insertedStores        109958                       # Number of stores inserted to the mem dependence unit. (Count)
system.cpu.MemDepUnit__0.conflictingLoads        15464                       # Number of conflicting loads. (Count)
system.cpu.MemDepUnit__0.conflictingStores        12421                       # Number of conflicting stores. (Count)
system.cpu.MemDepUnit__1.insertedLoads              0                       # Number of loads inserted to the mem dependence unit. (Count)
system.cpu.MemDepUnit__1.insertedStores             0                       # Number of stores inserted to the mem dependence unit. (Count)
system.cpu.MemDepUnit__1.conflictingLoads            0                       # Number of conflicting loads. (Count)
system.cpu.MemDepUnit__1.conflictingStores            0                       # Number of conflicting stores. (Count)
system.cpu.MemDepUnit__2.insertedLoads              0                       # Number of loads inserted to the mem dependence unit. (Count)
system.cpu.MemDepUnit__2.insertedStores             0                       # Number of stores inserted to the mem dependence unit. (Count)
system.cpu.MemDepUnit__2.conflictingLoads            0                       # Number of conflicting loads. (Count)
system.cpu.MemDepUnit__2.conflictingStores            0                       # Number of conflicting stores. (Count)
system.cpu.MemDepUnit__3.insertedLoads              0                       # Number of loads inserted to the mem dependence unit. (Count)
system.cpu.MemDepUnit__3.insertedStores             0                       # Number of stores inserted to the mem dependence unit. (Count)
system.cpu.MemDepUnit__3.conflictingLoads            0                       # Number of conflicting loads. (Count)
system.cpu.MemDepUnit__3.conflictingStores            0                       # Number of conflicting stores. (Count)
system.cpu.branchPred.lookups                34384435                       # Number of BP lookups (Count)
system.cpu.branchPred.condPredicted          34298713                       # Number of conditional branches predicted (Count)
system.cpu.branchPred.condIncorrect            675776                       # Number of conditional branches incorrect (Count)
system.cpu.branchPred.BTBLookups             12129242                       # Number of BTB lookups (Count)
system.cpu.branchPred.BTBUpdates                46134                       # Number of BTB updates (Count)
system.cpu.branchPred.BTBHits                12117675                       # Number of BTB hits (Count)
system.cpu.branchPred.BTBHitRatio            0.999046                       # BTB Hit Ratio (Ratio)
system.cpu.branchPred.RASUsed                   35431                       # Number of times the RAS was used to get a target. (Count)
system.cpu.branchPred.RASIncorrect                130                       # Number of incorrect RAS predictions. (Count)
system.cpu.branchPred.indirectLookups            2563                       # Number of indirect predictor lookups. (Count)
system.cpu.branchPred.indirectHits               2033                       # Number of indirect target hits. (Count)
system.cpu.branchPred.indirectMisses              530                       # Number of indirect misses. (Count)
system.cpu.branchPred.indirectMispredicted          123                       # Number of mispredicted indirect branches. (Count)
system.cpu.commit.commitSquashedInsts        17976867                       # The number of squashed insts skipped by commit (Count)
system.cpu.commit.commitNonSpecStalls            7000                       # The number of times commit has been forced to stall to communicate backwards (Count)
system.cpu.commit.branchMispredicts            672406                       # The number of times a branch was mispredicted (Count)
system.cpu.commit.numCommittedDist::samples   1139875509                       # Number of insts commited each cycle (Count)
system.cpu.commit.numCommittedDist::mean     0.102435                       # Number of insts commited each cycle (Count)
system.cpu.commit.numCommittedDist::stdev     0.553063                       # Number of insts commited each cycle (Count)
system.cpu.commit.numCommittedDist::underflows            0      0.00%      0.00% # Number of insts commited each cycle (Count)
system.cpu.commit.numCommittedDist::0      1084984803     95.18%     95.18% # Number of insts commited each cycle (Count)
system.cpu.commit.numCommittedDist::1        24699336      2.17%     97.35% # Number of insts commited each cycle (Count)
system.cpu.commit.numCommittedDist::2        14500959      1.27%     98.62% # Number of insts commited each cycle (Count)
system.cpu.commit.numCommittedDist::3         8307976      0.73%     99.35% # Number of insts commited each cycle (Count)
system.cpu.commit.numCommittedDist::4          699693      0.06%     99.41% # Number of insts commited each cycle (Count)
system.cpu.commit.numCommittedDist::5         5992679      0.53%     99.94% # Number of insts commited each cycle (Count)
system.cpu.commit.numCommittedDist::6           70323      0.01%     99.95% # Number of insts commited each cycle (Count)
system.cpu.commit.numCommittedDist::7            3813      0.00%     99.95% # Number of insts commited each cycle (Count)
system.cpu.commit.numCommittedDist::8          615927      0.05%    100.00% # Number of insts commited each cycle (Count)
system.cpu.commit.numCommittedDist::overflows            0      0.00%    100.00% # Number of insts commited each cycle (Count)
system.cpu.commit.numCommittedDist::min_value            0                       # Number of insts commited each cycle (Count)
system.cpu.commit.numCommittedDist::max_value            8                       # Number of insts commited each cycle (Count)
system.cpu.commit.numCommittedDist::total   1139875509                       # Number of insts commited each cycle (Count)
system.cpu.commit.instsCommitted            116633750                       # Number of instructions committed (Count)
system.cpu.commit.opsCommitted              116763394                       # Number of ops (including micro ops) committed (Count)
system.cpu.commit.memRefs                    49506551                       # Number of memory references committed (Count)
system.cpu.commit.loads                      49406282                       # Number of loads committed (Count)
system.cpu.commit.amos                              0                       # Number of atomic instructions committed (Count)
system.cpu.commit.membars                        4618                       # Number of memory barriers committed (Count)
system.cpu.commit.branches                   25191957                       # Number of branches committed (Count)
system.cpu.commit.vectorInstructions               64                       # Number of committed Vector instructions. (Count)
system.cpu.commit.floating                          0                       # Number of committed floating point instructions. (Count)
system.cpu.commit.integer                   108029681                       # Number of committed integer instructions. (Count)
system.cpu.commit.functionCalls                 25474                       # Number of function calls committed. (Count)
system.cpu.commit.committedInstType_0::No_OpClass            0      0.00%      0.00% # Class of committed instruction (Count)
system.cpu.commit.committedInstType_0::IntAlu     67252130     57.60%     57.60% # Class of committed instruction (Count)
system.cpu.commit.committedInstType_0::IntMult         4026      0.00%     57.60% # Class of committed instruction (Count)
system.cpu.commit.committedInstType_0::IntDiv          687      0.00%     57.60% # Class of committed instruction (Count)
system.cpu.commit.committedInstType_0::FloatAdd            0      0.00%     57.60% # Class of committed instruction (Count)
system.cpu.commit.committedInstType_0::FloatCmp            0      0.00%     57.60% # Class of committed instruction (Count)
system.cpu.commit.committedInstType_0::FloatCvt            0      0.00%     57.60% # Class of committed instruction (Count)
system.cpu.commit.committedInstType_0::FloatMult            0      0.00%     57.60% # Class of committed instruction (Count)
system.cpu.commit.committedInstType_0::FloatMultAcc            0      0.00%     57.60% # Class of committed instruction (Count)
system.cpu.commit.committedInstType_0::FloatDiv            0      0.00%     57.60% # Class of committed instruction (Count)
system.cpu.commit.committedInstType_0::FloatMisc            0      0.00%     57.60% # Class of committed instruction (Count)
system.cpu.commit.committedInstType_0::FloatSqrt            0      0.00%     57.60% # Class of committed instruction (Count)
system.cpu.commit.committedInstType_0::SimdAdd            0      0.00%     57.60% # Class of committed instruction (Count)
system.cpu.commit.committedInstType_0::SimdAddAcc            0      0.00%     57.60% # Class of committed instruction (Count)
system.cpu.commit.committedInstType_0::SimdAlu            0      0.00%     57.60% # Class of committed instruction (Count)
system.cpu.commit.committedInstType_0::SimdCmp            0      0.00%     57.60% # Class of committed instruction (Count)
system.cpu.commit.committedInstType_0::SimdCvt            0      0.00%     57.60% # Class of committed instruction (Count)
system.cpu.commit.committedInstType_0::SimdMisc            0      0.00%     57.60% # Class of committed instruction (Count)
system.cpu.commit.committedInstType_0::SimdMult            0      0.00%     57.60% # Class of committed instruction (Count)
system.cpu.commit.committedInstType_0::SimdMultAcc            0      0.00%     57.60% # Class of committed instruction (Count)
system.cpu.commit.committedInstType_0::SimdShift            0      0.00%     57.60% # Class of committed instruction (Count)
system.cpu.commit.committedInstType_0::SimdShiftAcc            0      0.00%     57.60% # Class of committed instruction (Count)
system.cpu.commit.committedInstType_0::SimdDiv            0      0.00%     57.60% # Class of committed instruction (Count)
system.cpu.commit.committedInstType_0::SimdSqrt            0      0.00%     57.60% # Class of committed instruction (Count)
system.cpu.commit.committedInstType_0::SimdFloatAdd            0      0.00%     57.60% # Class of committed instruction (Count)
system.cpu.commit.committedInstType_0::SimdFloatAlu            0      0.00%     57.60% # Class of committed instruction (Count)
system.cpu.commit.committedInstType_0::SimdFloatCmp            0      0.00%     57.60% # Class of committed instruction (Count)
system.cpu.commit.committedInstType_0::SimdFloatCvt            0      0.00%     57.60% # Class of committed instruction (Count)
system.cpu.commit.committedInstType_0::SimdFloatDiv            0      0.00%     57.60% # Class of committed instruction (Count)
system.cpu.commit.committedInstType_0::SimdFloatMisc            0      0.00%     57.60% # Class of committed instruction (Count)
system.cpu.commit.committedInstType_0::SimdFloatMult            0      0.00%     57.60% # Class of committed instruction (Count)
system.cpu.commit.committedInstType_0::SimdFloatMultAcc            0      0.00%     57.60% # Class of committed instruction (Count)
system.cpu.commit.committedInstType_0::SimdFloatSqrt            0      0.00%     57.60% # Class of committed instruction (Count)
system.cpu.commit.committedInstType_0::SimdReduceAdd            0      0.00%     57.60% # Class of committed instruction (Count)
system.cpu.commit.committedInstType_0::SimdReduceAlu            0      0.00%     57.60% # Class of committed instruction (Count)
system.cpu.commit.committedInstType_0::SimdReduceCmp            0      0.00%     57.60% # Class of committed instruction (Count)
system.cpu.commit.committedInstType_0::SimdFloatReduceAdd            0      0.00%     57.60% # Class of committed instruction (Count)
system.cpu.commit.committedInstType_0::SimdFloatReduceCmp            0      0.00%     57.60% # Class of committed instruction (Count)
system.cpu.commit.committedInstType_0::SimdAes            0      0.00%     57.60% # Class of committed instruction (Count)
system.cpu.commit.committedInstType_0::SimdAesMix            0      0.00%     57.60% # Class of committed instruction (Count)
system.cpu.commit.committedInstType_0::SimdSha1Hash            0      0.00%     57.60% # Class of committed instruction (Count)
system.cpu.commit.committedInstType_0::SimdSha1Hash2            0      0.00%     57.60% # Class of committed instruction (Count)
system.cpu.commit.committedInstType_0::SimdSha256Hash            0      0.00%     57.60% # Class of committed instruction (Count)
system.cpu.commit.committedInstType_0::SimdSha256Hash2            0      0.00%     57.60% # Class of committed instruction (Count)
system.cpu.commit.committedInstType_0::SimdShaSigma2            0      0.00%     57.60% # Class of committed instruction (Count)
system.cpu.commit.committedInstType_0::SimdShaSigma3            0      0.00%     57.60% # Class of committed instruction (Count)
system.cpu.commit.committedInstType_0::SimdPredAlu            0      0.00%     57.60% # Class of committed instruction (Count)
system.cpu.commit.committedInstType_0::MemRead     49406282     42.31%     99.91% # Class of committed instruction (Count)
system.cpu.commit.committedInstType_0::MemWrite       100269      0.09%    100.00% # Class of committed instruction (Count)
system.cpu.commit.committedInstType_0::FloatMemRead            0      0.00%    100.00% # Class of committed instruction (Count)
system.cpu.commit.committedInstType_0::FloatMemWrite            0      0.00%    100.00% # Class of committed instruction (Count)
system.cpu.commit.committedInstType_0::IprAccess            0      0.00%    100.00% # Class of committed instruction (Count)
system.cpu.commit.committedInstType_0::InstPrefetch            0      0.00%    100.00% # Class of committed instruction (Count)
system.cpu.commit.committedInstType_0::total    116763394                       # Class of committed instruction (Count)
system.cpu.commit.commitEligibleSamples        615927                       # number cycles where commit BW limit reached (Cycle)
system.cpu.dcache.demandHits::cpu.data       23873888                       # number of demand (read+write) hits (Count)
system.cpu.dcache.demandHits::total          23873888                       # number of demand (read+write) hits (Count)
system.cpu.dcache.demandHitsPerPC::401050       511012                       # number of demand (read+write) hits (Count)
system.cpu.dcache.demandHitsPerPC::401088      1268036                       # number of demand (read+write) hits (Count)
system.cpu.dcache.demandHitsPerPC::401058      1152514                       # number of demand (read+write) hits (Count)
system.cpu.dcache.demandHitsPerPC::401064      1152866                       # number of demand (read+write) hits (Count)
system.cpu.dcache.demandHitsPerPC::40107c       772786                       # number of demand (read+write) hits (Count)
system.cpu.dcache.demandHitsPerPC::total      4857214                       # number of demand (read+write) hits (Count)
system.cpu.dcache.demandHitsAtPf::cpu.data      1216747                       # number of demand (read+write) hits (Count)
system.cpu.dcache.demandHitsAtPf::total       1216747                       # number of demand (read+write) hits (Count)
system.cpu.dcache.demandHitsAtPfPerPC::401050        62999                       # number of demand (read+write) hits (Count)
system.cpu.dcache.demandHitsAtPfPerPC::401088       113165                       # number of demand (read+write) hits (Count)
system.cpu.dcache.demandHitsAtPfPerPC::401058      1020689                       # number of demand (read+write) hits (Count)
system.cpu.dcache.demandHitsAtPfPerPC::40107c        19891                       # number of demand (read+write) hits (Count)
system.cpu.dcache.demandHitsAtPfPerPC::total      1216744                       # number of demand (read+write) hits (Count)
system.cpu.dcache.demandHitsAtPfAlloc::cpu.data      4468812                       # number of demand (read+write) hits (Count)
system.cpu.dcache.demandHitsAtPfAlloc::total      4468812                       # number of demand (read+write) hits (Count)
system.cpu.dcache.demandHitsAtPfAllocPerPC::401050       504000                       # number of demand (read+write) hits (Count)
system.cpu.dcache.demandHitsAtPfAllocPerPC::401088      1195013                       # number of demand (read+write) hits (Count)
system.cpu.dcache.demandHitsAtPfAllocPerPC::401058      1034264                       # number of demand (read+write) hits (Count)
system.cpu.dcache.demandHitsAtPfAllocPerPC::401064      1034263                       # number of demand (read+write) hits (Count)
system.cpu.dcache.demandHitsAtPfAllocPerPC::40107c       701259                       # number of demand (read+write) hits (Count)
system.cpu.dcache.demandHitsAtPfAllocPerPC::total      4468799                       # number of demand (read+write) hits (Count)
system.cpu.dcache.hitsAtPfCoverAccess::8     0.023248                       # hits at prefetch / demand accesses (Count)
system.cpu.dcache.hitsAtPfCoverAccess::total     0.023248                       # hits at prefetch / demand accesses (Count)
system.cpu.dcache.hitsAtPfCoverAccessPerPC::401050     0.123042                       # hits at prefetch / demand accesses (Count)
system.cpu.dcache.hitsAtPfCoverAccessPerPC::401088     0.013554                       # hits at prefetch / demand accesses (Count)
system.cpu.dcache.hitsAtPfCoverAccessPerPC::401058     0.124595                       # hits at prefetch / demand accesses (Count)
system.cpu.dcache.hitsAtPfCoverAccessPerPC::40107c     0.002533                       # hits at prefetch / demand accesses (Count)
system.cpu.dcache.hitsAtPfCoverAccessPerPC::total     0.036764                       # hits at prefetch / demand accesses (Count)
system.cpu.dcache.hitsAtPfAllocCoverAccess::8     0.085385                       # hits at prefetch alloc / demand accesses (Count)
system.cpu.dcache.hitsAtPfAllocCoverAccess::total     0.085385                       # hits at prefetch alloc / demand accesses (Count)
system.cpu.dcache.hitsAtPfAllocCoverAccessPerPC::401050     0.984348                       # hits at prefetch alloc / demand accesses (Count)
system.cpu.dcache.hitsAtPfAllocCoverAccessPerPC::401088     0.143130                       # hits at prefetch alloc / demand accesses (Count)
system.cpu.dcache.hitsAtPfAllocCoverAccessPerPC::401058     0.126252                       # hits at prefetch alloc / demand accesses (Count)
system.cpu.dcache.hitsAtPfAllocCoverAccessPerPC::401064     0.126252                       # hits at prefetch alloc / demand accesses (Count)
system.cpu.dcache.hitsAtPfAllocCoverAccessPerPC::40107c     0.089319                       # hits at prefetch alloc / demand accesses (Count)
system.cpu.dcache.hitsAtPfAllocCoverAccessPerPC::total     0.135023                       # hits at prefetch alloc / demand accesses (Count)
system.cpu.dcache.hitsPfRatio::8             3.672754                       # hits at prefetch alloc / hits at prefetch (Count)
system.cpu.dcache.hitsPfRatio::total         3.672754                       # hits at prefetch alloc / hits at prefetch (Count)
system.cpu.dcache.hitsPfRatioPerPC::401050     8.000127                       # hits at prefetch alloc / hits at prefetch (Count)
system.cpu.dcache.hitsPfRatioPerPC::401088    10.559917                       # hits at prefetch alloc / hits at prefetch (Count)
system.cpu.dcache.hitsPfRatioPerPC::401058     1.013300                       # hits at prefetch alloc / hits at prefetch (Count)
system.cpu.dcache.hitsPfRatioPerPC::401064          inf                       # hits at prefetch alloc / hits at prefetch (Count)
system.cpu.dcache.hitsPfRatioPerPC::40107c    35.255090                       # hits at prefetch alloc / hits at prefetch (Count)
system.cpu.dcache.hitsPfRatioPerPC::total     3.672752                       # hits at prefetch alloc / hits at prefetch (Count)
system.cpu.dcache.overallHits::cpu.data      23874401                       # number of overall hits (Count)
system.cpu.dcache.overallHits::total         23874401                       # number of overall hits (Count)
system.cpu.dcache.demandMisses::cpu.data     28463084                       # number of demand (read+write) misses (Count)
system.cpu.dcache.demandMisses::total        28463084                       # number of demand (read+write) misses (Count)
system.cpu.dcache.demandMissesPerPC::401050         1002                       # number of demand (read+write) misses (Count)
system.cpu.dcache.demandMissesPerPC::401088      7081123                       # number of demand (read+write) misses (Count)
system.cpu.dcache.demandMissesPerPC::401058      7039538                       # number of demand (read+write) misses (Count)
system.cpu.dcache.demandMissesPerPC::401064      7039160                       # number of demand (read+write) misses (Count)
system.cpu.dcache.demandMissesPerPC::40107c      7078425                       # number of demand (read+write) misses (Count)
system.cpu.dcache.demandMissesPerPC::total     28239248                       # number of demand (read+write) misses (Count)
system.cpu.dcache.overallMisses::cpu.data     28463779                       # number of overall misses (Count)
system.cpu.dcache.overallMisses::total       28463779                       # number of overall misses (Count)
system.cpu.dcache.demandMissLatency::cpu.data 1718713100344                       # number of demand (read+write) miss ticks (Tick)
system.cpu.dcache.demandMissLatency::total 1718713100344                       # number of demand (read+write) miss ticks (Tick)
system.cpu.dcache.overallMissLatency::cpu.data 1718713100344                       # number of overall miss ticks (Tick)
system.cpu.dcache.overallMissLatency::total 1718713100344                       # number of overall miss ticks (Tick)
system.cpu.dcache.demandAccesses::cpu.data     52336972                       # number of demand (read+write) accesses (Count)
system.cpu.dcache.demandAccesses::total      52336972                       # number of demand (read+write) accesses (Count)
system.cpu.dcache.demandAccessesPerPC::401050       512014                       # number of demand (read+write) accesses (Count)
system.cpu.dcache.demandAccessesPerPC::401088      8349159                       # number of demand (read+write) accesses (Count)
system.cpu.dcache.demandAccessesPerPC::401058      8192052                       # number of demand (read+write) accesses (Count)
system.cpu.dcache.demandAccessesPerPC::401064      8192026                       # number of demand (read+write) accesses (Count)
system.cpu.dcache.demandAccessesPerPC::40107c      7851211                       # number of demand (read+write) accesses (Count)
system.cpu.dcache.demandAccessesPerPC::total     33096462                       # number of demand (read+write) accesses (Count)
system.cpu.dcache.overallAccesses::cpu.data     52338180                       # number of overall (read+write) accesses (Count)
system.cpu.dcache.overallAccesses::total     52338180                       # number of overall (read+write) accesses (Count)
system.cpu.dcache.demandMissRate::cpu.data     0.543843                       # miss rate for demand accesses (Ratio)
system.cpu.dcache.demandMissRate::total      0.543843                       # miss rate for demand accesses (Ratio)
system.cpu.dcache.demandMissRatePerPC::401050     0.001957                       # miss rate for demand accesses (Ratio)
system.cpu.dcache.demandMissRatePerPC::401088     0.848124                       # miss rate for demand accesses (Ratio)
system.cpu.dcache.demandMissRatePerPC::401058     0.859313                       # miss rate for demand accesses (Ratio)
system.cpu.dcache.demandMissRatePerPC::401064     0.859270                       # miss rate for demand accesses (Ratio)
system.cpu.dcache.demandMissRatePerPC::40107c     0.901571                       # miss rate for demand accesses (Ratio)
system.cpu.dcache.overallMissRate::cpu.data     0.543844                       # miss rate for overall accesses (Ratio)
system.cpu.dcache.overallMissRate::total     0.543844                       # miss rate for overall accesses (Ratio)
system.cpu.dcache.demandAvgMissLatency::cpu.data 60383.938028                       # average overall miss latency in ticks ((Tick/Count))
system.cpu.dcache.demandAvgMissLatency::total 60383.938028                       # average overall miss latency in ticks ((Tick/Count))
system.cpu.dcache.overallAvgMissLatency::cpu.data 60382.463634                       # average overall miss latency ((Tick/Count))
system.cpu.dcache.overallAvgMissLatency::total 60382.463634                       # average overall miss latency ((Tick/Count))
system.cpu.dcache.blockedCycles::no_mshrs         7384                       # number of cycles access was blocked (Cycle)
system.cpu.dcache.blockedCycles::no_targets        52813                       # number of cycles access was blocked (Cycle)
system.cpu.dcache.blockedCauses::no_mshrs          873                       # number of times access was blocked (Count)
system.cpu.dcache.blockedCauses::no_targets          585                       # number of times access was blocked (Count)
system.cpu.dcache.avgBlocked::no_mshrs       8.458190                       # average number of cycles each access was blocked ((Cycle/Count))
system.cpu.dcache.avgBlocked::no_targets    90.278632                       # average number of cycles each access was blocked ((Cycle/Count))
system.cpu.dcache.writebacks::writebacks     10119859                       # number of writebacks (Count)
system.cpu.dcache.writebacks::total          10119859                       # number of writebacks (Count)
system.cpu.dcache.demandMshrHits::cpu.data     20268382                       # number of demand (read+write) MSHR hits (Count)
system.cpu.dcache.demandMshrHits::total      20268382                       # number of demand (read+write) MSHR hits (Count)
system.cpu.dcache.demandMshrHitsPerPC::401050            1                       # number of demand (read+write) MSHR hits (Count)
system.cpu.dcache.demandMshrHitsPerPC::401088      7080270                       # number of demand (read+write) MSHR hits (Count)
system.cpu.dcache.demandMshrHitsPerPC::401058       567416                       # number of demand (read+write) MSHR hits (Count)
system.cpu.dcache.demandMshrHitsPerPC::401064      7039160                       # number of demand (read+write) MSHR hits (Count)
system.cpu.dcache.demandMshrHitsPerPC::40107c      5437772                       # number of demand (read+write) MSHR hits (Count)
system.cpu.dcache.demandMshrHitsPerPC::total     20124619                       # number of demand (read+write) MSHR hits (Count)
system.cpu.dcache.overallMshrHits::cpu.data     20268382                       # number of overall MSHR hits (Count)
system.cpu.dcache.overallMshrHits::total     20268382                       # number of overall MSHR hits (Count)
system.cpu.dcache.demandMshrHitsAtPf::cpu.data       707196                       # number of demand (read+write) MSHR hits (Count)
system.cpu.dcache.demandMshrHitsAtPf::total       707196                       # number of demand (read+write) MSHR hits (Count)
system.cpu.dcache.demandMshrHitsAtPfPerPC::401088           27                       # number of demand (read+write) MSHR hits (Count)
system.cpu.dcache.demandMshrHitsAtPfPerPC::401058       567383                       # number of demand (read+write) MSHR hits (Count)
system.cpu.dcache.demandMshrHitsAtPfPerPC::40107c       139777                       # number of demand (read+write) MSHR hits (Count)
system.cpu.dcache.demandMshrHitsAtPfPerPC::total       707187                       # number of demand (read+write) MSHR hits (Count)
system.cpu.dcache.demandMshrMisses::cpu.data      8194702                       # number of demand (read+write) MSHR misses (Count)
system.cpu.dcache.demandMshrMisses::total      8194702                       # number of demand (read+write) MSHR misses (Count)
system.cpu.dcache.demandMshrMissesPerPC::401050         1001                       # number of demand (read+write) MSHR misses (Count)
system.cpu.dcache.demandMshrMissesPerPC::401088          853                       # number of demand (read+write) MSHR misses (Count)
system.cpu.dcache.demandMshrMissesPerPC::401058      6472122                       # number of demand (read+write) MSHR misses (Count)
system.cpu.dcache.demandMshrMissesPerPC::40107c      1640653                       # number of demand (read+write) MSHR misses (Count)
system.cpu.dcache.demandMshrMissesPerPC::total      8114629                       # number of demand (read+write) MSHR misses (Count)
system.cpu.dcache.overallMshrMisses::cpu.data      8195394                       # number of overall MSHR misses (Count)
system.cpu.dcache.overallMshrMisses::cpu.dcache.prefetcher      1924462                       # number of overall MSHR misses (Count)
system.cpu.dcache.overallMshrMisses::total     10119856                       # number of overall MSHR misses (Count)
system.cpu.dcache.overallMshrUncacheable::cpu.data          458                       # number of overall MSHR uncacheable misses (Count)
system.cpu.dcache.overallMshrUncacheable::total          458                       # number of overall MSHR uncacheable misses (Count)
system.cpu.dcache.demandMshrMissLatency::cpu.data 486752429544                       # number of demand (read+write) MSHR miss ticks (Tick)
system.cpu.dcache.demandMshrMissLatency::total 486752429544                       # number of demand (read+write) MSHR miss ticks (Tick)
system.cpu.dcache.overallMshrMissLatency::cpu.data 486793839544                       # number of overall MSHR miss ticks (Tick)
system.cpu.dcache.overallMshrMissLatency::cpu.dcache.prefetcher 113193624936                       # number of overall MSHR miss ticks (Tick)
system.cpu.dcache.overallMshrMissLatency::total 599987464480                       # number of overall MSHR miss ticks (Tick)
system.cpu.dcache.overallMshrUncacheableLatency::cpu.data     36736400                       # number of overall MSHR uncacheable ticks (Tick)
system.cpu.dcache.overallMshrUncacheableLatency::total     36736400                       # number of overall MSHR uncacheable ticks (Tick)
system.cpu.dcache.demandMshrMissRate::cpu.data     0.156576                       # mshr miss ratio for demand accesses (Ratio)
system.cpu.dcache.demandMshrMissRate::total     0.156576                       # mshr miss ratio for demand accesses (Ratio)
system.cpu.dcache.overallMshrMissRate::cpu.data     0.156585                       # mshr miss ratio for overall accesses (Ratio)
system.cpu.dcache.overallMshrMissRate::cpu.dcache.prefetcher          inf                       # mshr miss ratio for overall accesses (Ratio)
system.cpu.dcache.overallMshrMissRate::total     0.193355                       # mshr miss ratio for overall accesses (Ratio)
system.cpu.dcache.demandAvgMshrMissLatency::cpu.data 59398.429564                       # average overall mshr miss latency ((Tick/Count))
system.cpu.dcache.demandAvgMshrMissLatency::total 59398.429564                       # average overall mshr miss latency ((Tick/Count))
system.cpu.dcache.overallAvgMshrMissLatency::cpu.data 59398.466937                       # average overall mshr miss latency ((Tick/Count))
system.cpu.dcache.overallAvgMshrMissLatency::cpu.dcache.prefetcher 58818.321659                       # average overall mshr miss latency ((Tick/Count))
system.cpu.dcache.overallAvgMshrMissLatency::total 59288.142487                       # average overall mshr miss latency ((Tick/Count))
system.cpu.dcache.overallAvgMshrUncacheableLatency::cpu.data 80210.480349                       # average overall mshr uncacheable latency ((Tick/Count))
system.cpu.dcache.overallAvgMshrUncacheableLatency::total 80210.480349                       # average overall mshr uncacheable latency ((Tick/Count))
system.cpu.dcache.replacements               10119859                       # number of replacements (Count)
system.cpu.dcache.prefetchFills               1217264                       # number of prefetch fills (Count)
system.cpu.dcache.prefetchHits                1216752                       # number of prefetch hits (Count)
system.cpu.dcache.HardPFReq.mshrMisses::cpu.dcache.prefetcher      1924462                       # number of HardPFReq MSHR misses (Count)
system.cpu.dcache.HardPFReq.mshrMisses::total      1924462                       # number of HardPFReq MSHR misses (Count)
system.cpu.dcache.HardPFReq.mshrMissLatency::cpu.dcache.prefetcher 113193624936                       # number of HardPFReq MSHR miss ticks (Tick)
system.cpu.dcache.HardPFReq.mshrMissLatency::total 113193624936                       # number of HardPFReq MSHR miss ticks (Tick)
system.cpu.dcache.HardPFReq.mshrMissRate::cpu.dcache.prefetcher          inf                       # mshr miss rate for HardPFReq accesses (Ratio)
system.cpu.dcache.HardPFReq.mshrMissRate::total          inf                       # mshr miss rate for HardPFReq accesses (Ratio)
system.cpu.dcache.HardPFReq.avgMshrMissLatency::cpu.dcache.prefetcher 58818.321659                       # average HardPFReq mshr miss latency ((Tick/Count))
system.cpu.dcache.HardPFReq.avgMshrMissLatency::total 58818.321659                       # average HardPFReq mshr miss latency ((Tick/Count))
system.cpu.dcache.LoadLockedReq.hits::cpu.data          562                       # number of LoadLockedReq hits (Count)
system.cpu.dcache.LoadLockedReq.hits::total          562                       # number of LoadLockedReq hits (Count)
system.cpu.dcache.LoadLockedReq.hitsAtPfAlloc::cpu.data           23                       # number of LoadLockedReq hits (Count)
system.cpu.dcache.LoadLockedReq.hitsAtPfAlloc::total           23                       # number of LoadLockedReq hits (Count)
system.cpu.dcache.LoadLockedReq.misses::cpu.data          582                       # number of LoadLockedReq misses (Count)
system.cpu.dcache.LoadLockedReq.misses::total          582                       # number of LoadLockedReq misses (Count)
system.cpu.dcache.LoadLockedReq.missLatency::cpu.data     35410000                       # number of LoadLockedReq miss ticks (Tick)
system.cpu.dcache.LoadLockedReq.missLatency::total     35410000                       # number of LoadLockedReq miss ticks (Tick)
system.cpu.dcache.LoadLockedReq.accesses::cpu.data         1144                       # number of LoadLockedReq accesses(hits+misses) (Count)
system.cpu.dcache.LoadLockedReq.accesses::total         1144                       # number of LoadLockedReq accesses(hits+misses) (Count)
system.cpu.dcache.LoadLockedReq.missRate::cpu.data     0.508741                       # miss rate for LoadLockedReq accesses (Ratio)
system.cpu.dcache.LoadLockedReq.missRate::total     0.508741                       # miss rate for LoadLockedReq accesses (Ratio)
system.cpu.dcache.LoadLockedReq.avgMissLatency::cpu.data 60841.924399                       # average LoadLockedReq miss latency ((Tick/Count))
system.cpu.dcache.LoadLockedReq.avgMissLatency::total 60841.924399                       # average LoadLockedReq miss latency ((Tick/Count))
system.cpu.dcache.LoadLockedReq.mshrHits::cpu.data          581                       # number of LoadLockedReq MSHR hits (Count)
system.cpu.dcache.LoadLockedReq.mshrHits::total          581                       # number of LoadLockedReq MSHR hits (Count)
system.cpu.dcache.LoadLockedReq.mshrHitsAtPf::8            2                       # number of LoadLockedReq MSHR hits at pfMSHR (Count)
system.cpu.dcache.LoadLockedReq.mshrHitsAtPf::total            2                       # number of LoadLockedReq MSHR hits at pfMSHR (Count)
system.cpu.dcache.LoadLockedReq.mshrMisses::cpu.data            1                       # number of LoadLockedReq MSHR misses (Count)
system.cpu.dcache.LoadLockedReq.mshrMisses::total            1                       # number of LoadLockedReq MSHR misses (Count)
system.cpu.dcache.LoadLockedReq.mshrMissLatency::cpu.data        60000                       # number of LoadLockedReq MSHR miss ticks (Tick)
system.cpu.dcache.LoadLockedReq.mshrMissLatency::total        60000                       # number of LoadLockedReq MSHR miss ticks (Tick)
system.cpu.dcache.LoadLockedReq.mshrMissRate::cpu.data     0.000874                       # mshr miss rate for LoadLockedReq accesses (Ratio)
system.cpu.dcache.LoadLockedReq.mshrMissRate::total     0.000874                       # mshr miss rate for LoadLockedReq accesses (Ratio)
system.cpu.dcache.LoadLockedReq.avgMshrMissLatency::cpu.data        60000                       # average LoadLockedReq mshr miss latency ((Tick/Count))
system.cpu.dcache.LoadLockedReq.avgMshrMissLatency::total        60000                       # average LoadLockedReq mshr miss latency ((Tick/Count))
system.cpu.dcache.ReadReq.hits::cpu.data     23787898                       # number of ReadReq hits (Count)
system.cpu.dcache.ReadReq.hits::total        23787898                       # number of ReadReq hits (Count)
system.cpu.dcache.ReadReq.hitsPerPC::401050       511012                       # number of ReadReq hits (Count)
system.cpu.dcache.ReadReq.hitsPerPC::401088      1268036                       # number of ReadReq hits (Count)
system.cpu.dcache.ReadReq.hitsPerPC::401058      1152514                       # number of ReadReq hits (Count)
system.cpu.dcache.ReadReq.hitsPerPC::401064      1152866                       # number of ReadReq hits (Count)
system.cpu.dcache.ReadReq.hitsPerPC::40107c       772786                       # number of ReadReq hits (Count)
system.cpu.dcache.ReadReq.hitsAtPf::cpu.data      1216746                       # number of ReadReq hits (Count)
system.cpu.dcache.ReadReq.hitsAtPf::total      1216746                       # number of ReadReq hits (Count)
system.cpu.dcache.ReadReq.hitsAtPfPerPC::401050        62999                       # number of ReadReq hits (Count)
system.cpu.dcache.ReadReq.hitsAtPfPerPC::401088       113165                       # number of ReadReq hits (Count)
system.cpu.dcache.ReadReq.hitsAtPfPerPC::401058      1020689                       # number of ReadReq hits (Count)
system.cpu.dcache.ReadReq.hitsAtPfPerPC::40107c        19891                       # number of ReadReq hits (Count)
system.cpu.dcache.ReadReq.hitsAtPfAlloc::cpu.data      4468804                       # number of ReadReq hits (Count)
system.cpu.dcache.ReadReq.hitsAtPfAlloc::total      4468804                       # number of ReadReq hits (Count)
system.cpu.dcache.ReadReq.hitsAtPfAllocPerPC::401050       504000                       # number of ReadReq hits (Count)
system.cpu.dcache.ReadReq.hitsAtPfAllocPerPC::401088      1195013                       # number of ReadReq hits (Count)
system.cpu.dcache.ReadReq.hitsAtPfAllocPerPC::401058      1034264                       # number of ReadReq hits (Count)
system.cpu.dcache.ReadReq.hitsAtPfAllocPerPC::401064      1034263                       # number of ReadReq hits (Count)
system.cpu.dcache.ReadReq.hitsAtPfAllocPerPC::40107c       701259                       # number of ReadReq hits (Count)
system.cpu.dcache.ReadReq.misses::cpu.data     28449823                       # number of ReadReq misses (Count)
system.cpu.dcache.ReadReq.misses::total      28449823                       # number of ReadReq misses (Count)
system.cpu.dcache.ReadReq.missesPerPC::401050         1002                       # number of ReadReq misses (Count)
system.cpu.dcache.ReadReq.missesPerPC::401088      7081123                       # number of ReadReq misses (Count)
system.cpu.dcache.ReadReq.missesPerPC::401058      7039538                       # number of ReadReq misses (Count)
system.cpu.dcache.ReadReq.missesPerPC::401064      7039160                       # number of ReadReq misses (Count)
system.cpu.dcache.ReadReq.missesPerPC::40107c      7078425                       # number of ReadReq misses (Count)
system.cpu.dcache.ReadReq.missLatency::cpu.data 1718004408400                       # number of ReadReq miss ticks (Tick)
system.cpu.dcache.ReadReq.missLatency::total 1718004408400                       # number of ReadReq miss ticks (Tick)
system.cpu.dcache.ReadReq.accesses::cpu.data     52237721                       # number of ReadReq accesses(hits+misses) (Count)
system.cpu.dcache.ReadReq.accesses::total     52237721                       # number of ReadReq accesses(hits+misses) (Count)
system.cpu.dcache.ReadReq.accessesPerPC::401050       512014                       # number of ReadReq accesses(hits+misses) (Count)
system.cpu.dcache.ReadReq.accessesPerPC::401088      8349159                       # number of ReadReq accesses(hits+misses) (Count)
system.cpu.dcache.ReadReq.accessesPerPC::401058      8192052                       # number of ReadReq accesses(hits+misses) (Count)
system.cpu.dcache.ReadReq.accessesPerPC::401064      8192026                       # number of ReadReq accesses(hits+misses) (Count)
system.cpu.dcache.ReadReq.accessesPerPC::40107c      7851211                       # number of ReadReq accesses(hits+misses) (Count)
system.cpu.dcache.ReadReq.missRate::cpu.data     0.544622                       # miss rate for ReadReq accesses (Ratio)
system.cpu.dcache.ReadReq.missRate::total     0.544622                       # miss rate for ReadReq accesses (Ratio)
system.cpu.dcache.ReadReq.avgMissLatency::cpu.data 60387.173882                       # average ReadReq miss latency ((Tick/Count))
system.cpu.dcache.ReadReq.avgMissLatency::total 60387.173882                       # average ReadReq miss latency ((Tick/Count))
system.cpu.dcache.ReadReq.mshrHits::cpu.data     20258001                       # number of ReadReq MSHR hits (Count)
system.cpu.dcache.ReadReq.mshrHits::total     20258001                       # number of ReadReq MSHR hits (Count)
system.cpu.dcache.ReadReq.mshrHitsPerPC::401050            1                       # number of ReadReq MSHR hits (Count)
system.cpu.dcache.ReadReq.mshrHitsPerPC::401088      7080270                       # number of ReadReq MSHR hits (Count)
system.cpu.dcache.ReadReq.mshrHitsPerPC::401058       567416                       # number of ReadReq MSHR hits (Count)
system.cpu.dcache.ReadReq.mshrHitsPerPC::401064      7039160                       # number of ReadReq MSHR hits (Count)
system.cpu.dcache.ReadReq.mshrHitsPerPC::40107c      5437772                       # number of ReadReq MSHR hits (Count)
system.cpu.dcache.ReadReq.mshrHitsAtPf::8       707189                       # number of ReadReq MSHR hits at pfMSHR (Count)
system.cpu.dcache.ReadReq.mshrHitsAtPf::total       707189                       # number of ReadReq MSHR hits at pfMSHR (Count)
system.cpu.dcache.ReadReq.mshrHitsAtPfPerPC::401088           27                       # number of ReadReq MSHR hits at pfMSHR (Count)
system.cpu.dcache.ReadReq.mshrHitsAtPfPerPC::401058       567383                       # number of ReadReq MSHR hits at pfMSHR (Count)
system.cpu.dcache.ReadReq.mshrHitsAtPfPerPC::40107c       139777                       # number of ReadReq MSHR hits at pfMSHR (Count)
system.cpu.dcache.ReadReq.mshrMisses::cpu.data      8191822                       # number of ReadReq MSHR misses (Count)
system.cpu.dcache.ReadReq.mshrMisses::total      8191822                       # number of ReadReq MSHR misses (Count)
system.cpu.dcache.ReadReq.mshrMissesPerPC::401050         1001                       # number of ReadReq MSHR misses (Count)
system.cpu.dcache.ReadReq.mshrMissesPerPC::401088          853                       # number of ReadReq MSHR misses (Count)
system.cpu.dcache.ReadReq.mshrMissesPerPC::401058      6472122                       # number of ReadReq MSHR misses (Count)
system.cpu.dcache.ReadReq.mshrMissesPerPC::40107c      1640653                       # number of ReadReq MSHR misses (Count)
system.cpu.dcache.ReadReq.mshrUncacheable::cpu.data          344                       # number of ReadReq MSHR uncacheable (Count)
system.cpu.dcache.ReadReq.mshrUncacheable::total          344                       # number of ReadReq MSHR uncacheable (Count)
system.cpu.dcache.ReadReq.mshrMissLatency::cpu.data 486582688400                       # number of ReadReq MSHR miss ticks (Tick)
system.cpu.dcache.ReadReq.mshrMissLatency::total 486582688400                       # number of ReadReq MSHR miss ticks (Tick)
system.cpu.dcache.ReadReq.mshrUncacheableLatency::cpu.data     36736400                       # number of ReadReq MSHR uncacheable ticks (Tick)
system.cpu.dcache.ReadReq.mshrUncacheableLatency::total     36736400                       # number of ReadReq MSHR uncacheable ticks (Tick)
system.cpu.dcache.ReadReq.mshrMissRate::cpu.data     0.156818                       # mshr miss rate for ReadReq accesses (Ratio)
system.cpu.dcache.ReadReq.mshrMissRate::total     0.156818                       # mshr miss rate for ReadReq accesses (Ratio)
system.cpu.dcache.ReadReq.avgMshrMissLatency::cpu.data 59398.591473                       # average ReadReq mshr miss latency ((Tick/Count))
system.cpu.dcache.ReadReq.avgMshrMissLatency::total 59398.591473                       # average ReadReq mshr miss latency ((Tick/Count))
system.cpu.dcache.ReadReq.avgMshrUncacheableLatency::cpu.data 106791.860465                       # average ReadReq mshr uncacheable latency ((Tick/Count))
system.cpu.dcache.ReadReq.avgMshrUncacheableLatency::total 106791.860465                       # average ReadReq mshr uncacheable latency ((Tick/Count))
system.cpu.dcache.SoftPFExReq.hits::cpu.data          513                       # number of SoftPFExReq hits (Count)
system.cpu.dcache.SoftPFExReq.hits::total          513                       # number of SoftPFExReq hits (Count)
system.cpu.dcache.SoftPFExReq.hitsAtPf::cpu.data            5                       # number of SoftPFExReq hits (Count)
system.cpu.dcache.SoftPFExReq.hitsAtPf::total            5                       # number of SoftPFExReq hits (Count)
system.cpu.dcache.SoftPFExReq.hitsAtPfAlloc::cpu.data           12                       # number of SoftPFExReq hits (Count)
system.cpu.dcache.SoftPFExReq.hitsAtPfAlloc::total           12                       # number of SoftPFExReq hits (Count)
system.cpu.dcache.SoftPFExReq.misses::cpu.data          581                       # number of SoftPFExReq misses (Count)
system.cpu.dcache.SoftPFExReq.misses::total          581                       # number of SoftPFExReq misses (Count)
system.cpu.dcache.SoftPFExReq.accesses::cpu.data         1094                       # number of SoftPFExReq accesses(hits+misses) (Count)
system.cpu.dcache.SoftPFExReq.accesses::total         1094                       # number of SoftPFExReq accesses(hits+misses) (Count)
system.cpu.dcache.SoftPFExReq.missRate::cpu.data     0.531079                       # miss rate for SoftPFExReq accesses (Ratio)
system.cpu.dcache.SoftPFExReq.missRate::total     0.531079                       # miss rate for SoftPFExReq accesses (Ratio)
system.cpu.dcache.SoftPFExReq.mshrMisses::cpu.data          578                       # number of SoftPFExReq MSHR misses (Count)
system.cpu.dcache.SoftPFExReq.mshrMisses::total          578                       # number of SoftPFExReq MSHR misses (Count)
system.cpu.dcache.SoftPFExReq.mshrMissLatency::cpu.data     34569200                       # number of SoftPFExReq MSHR miss ticks (Tick)
system.cpu.dcache.SoftPFExReq.mshrMissLatency::total     34569200                       # number of SoftPFExReq MSHR miss ticks (Tick)
system.cpu.dcache.SoftPFExReq.mshrMissRate::cpu.data     0.528336                       # mshr miss rate for SoftPFExReq accesses (Ratio)
system.cpu.dcache.SoftPFExReq.mshrMissRate::total     0.528336                       # mshr miss rate for SoftPFExReq accesses (Ratio)
system.cpu.dcache.SoftPFExReq.avgMshrMissLatency::cpu.data 59808.304498                       # average SoftPFExReq mshr miss latency ((Tick/Count))
system.cpu.dcache.SoftPFExReq.avgMshrMissLatency::total 59808.304498                       # average SoftPFExReq mshr miss latency ((Tick/Count))
system.cpu.dcache.SoftPFReq.misses::cpu.data          114                       # number of SoftPFReq misses (Count)
system.cpu.dcache.SoftPFReq.misses::total          114                       # number of SoftPFReq misses (Count)
system.cpu.dcache.SoftPFReq.accesses::cpu.data          114                       # number of SoftPFReq accesses(hits+misses) (Count)
system.cpu.dcache.SoftPFReq.accesses::total          114                       # number of SoftPFReq accesses(hits+misses) (Count)
system.cpu.dcache.SoftPFReq.missRate::cpu.data            1                       # miss rate for SoftPFReq accesses (Ratio)
system.cpu.dcache.SoftPFReq.missRate::total            1                       # miss rate for SoftPFReq accesses (Ratio)
system.cpu.dcache.SoftPFReq.mshrMisses::cpu.data          114                       # number of SoftPFReq MSHR misses (Count)
system.cpu.dcache.SoftPFReq.mshrMisses::total          114                       # number of SoftPFReq MSHR misses (Count)
system.cpu.dcache.SoftPFReq.mshrMissLatency::cpu.data      6840800                       # number of SoftPFReq MSHR miss ticks (Tick)
system.cpu.dcache.SoftPFReq.mshrMissLatency::total      6840800                       # number of SoftPFReq MSHR miss ticks (Tick)
system.cpu.dcache.SoftPFReq.mshrMissRate::cpu.data            1                       # mshr miss rate for SoftPFReq accesses (Ratio)
system.cpu.dcache.SoftPFReq.mshrMissRate::total            1                       # mshr miss rate for SoftPFReq accesses (Ratio)
system.cpu.dcache.SoftPFReq.avgMshrMissLatency::cpu.data 60007.017544                       # average SoftPFReq mshr miss latency ((Tick/Count))
system.cpu.dcache.SoftPFReq.avgMshrMissLatency::total 60007.017544                       # average SoftPFReq mshr miss latency ((Tick/Count))
system.cpu.dcache.StoreCondReq.hits::cpu.data          904                       # number of StoreCondReq hits (Count)
system.cpu.dcache.StoreCondReq.hits::total          904                       # number of StoreCondReq hits (Count)
system.cpu.dcache.StoreCondReq.hitsAtPfAlloc::cpu.data           19                       # number of StoreCondReq hits (Count)
system.cpu.dcache.StoreCondReq.hitsAtPfAlloc::total           19                       # number of StoreCondReq hits (Count)
system.cpu.dcache.StoreCondReq.accesses::cpu.data          904                       # number of StoreCondReq accesses(hits+misses) (Count)
system.cpu.dcache.StoreCondReq.accesses::total          904                       # number of StoreCondReq accesses(hits+misses) (Count)
system.cpu.dcache.WriteReq.hits::cpu.data        85990                       # number of WriteReq hits (Count)
system.cpu.dcache.WriteReq.hits::total          85990                       # number of WriteReq hits (Count)
system.cpu.dcache.WriteReq.hitsAtPf::cpu.data            1                       # number of WriteReq hits (Count)
system.cpu.dcache.WriteReq.hitsAtPf::total            1                       # number of WriteReq hits (Count)
system.cpu.dcache.WriteReq.hitsAtPfAlloc::cpu.data            8                       # number of WriteReq hits (Count)
system.cpu.dcache.WriteReq.hitsAtPfAlloc::total            8                       # number of WriteReq hits (Count)
system.cpu.dcache.WriteReq.misses::cpu.data        13261                       # number of WriteReq misses (Count)
system.cpu.dcache.WriteReq.misses::total        13261                       # number of WriteReq misses (Count)
system.cpu.dcache.WriteReq.missLatency::cpu.data    708691944                       # number of WriteReq miss ticks (Tick)
system.cpu.dcache.WriteReq.missLatency::total    708691944                       # number of WriteReq miss ticks (Tick)
system.cpu.dcache.WriteReq.accesses::cpu.data        99251                       # number of WriteReq accesses(hits+misses) (Count)
system.cpu.dcache.WriteReq.accesses::total        99251                       # number of WriteReq accesses(hits+misses) (Count)
system.cpu.dcache.WriteReq.missRate::cpu.data     0.133611                       # miss rate for WriteReq accesses (Ratio)
system.cpu.dcache.WriteReq.missRate::total     0.133611                       # miss rate for WriteReq accesses (Ratio)
system.cpu.dcache.WriteReq.avgMissLatency::cpu.data 53441.817661                       # average WriteReq miss latency ((Tick/Count))
system.cpu.dcache.WriteReq.avgMissLatency::total 53441.817661                       # average WriteReq miss latency ((Tick/Count))
system.cpu.dcache.WriteReq.mshrHits::cpu.data        10381                       # number of WriteReq MSHR hits (Count)
system.cpu.dcache.WriteReq.mshrHits::total        10381                       # number of WriteReq MSHR hits (Count)
system.cpu.dcache.WriteReq.mshrHitsAtPf::8            7                       # number of WriteReq MSHR hits at pfMSHR (Count)
system.cpu.dcache.WriteReq.mshrHitsAtPf::total            7                       # number of WriteReq MSHR hits at pfMSHR (Count)
system.cpu.dcache.WriteReq.mshrMisses::cpu.data         2880                       # number of WriteReq MSHR misses (Count)
system.cpu.dcache.WriteReq.mshrMisses::total         2880                       # number of WriteReq MSHR misses (Count)
system.cpu.dcache.WriteReq.mshrUncacheable::cpu.data          114                       # number of WriteReq MSHR uncacheable (Count)
system.cpu.dcache.WriteReq.mshrUncacheable::total          114                       # number of WriteReq MSHR uncacheable (Count)
system.cpu.dcache.WriteReq.mshrMissLatency::cpu.data    169741144                       # number of WriteReq MSHR miss ticks (Tick)
system.cpu.dcache.WriteReq.mshrMissLatency::total    169741144                       # number of WriteReq MSHR miss ticks (Tick)
system.cpu.dcache.WriteReq.mshrMissRate::cpu.data     0.029017                       # mshr miss rate for WriteReq accesses (Ratio)
system.cpu.dcache.WriteReq.mshrMissRate::total     0.029017                       # mshr miss rate for WriteReq accesses (Ratio)
system.cpu.dcache.WriteReq.avgMshrMissLatency::cpu.data 58937.897222                       # average WriteReq mshr miss latency ((Tick/Count))
system.cpu.dcache.WriteReq.avgMshrMissLatency::total 58937.897222                       # average WriteReq mshr miss latency ((Tick/Count))
system.cpu.dcache.power_state.pwrStateResidencyTicks::UNDEFINED 1375063475600                       # Cumulative time (in ticks) in various power states (Tick)
system.cpu.dcache.prefetcher.demandMshrMisses      8194702                       # demands not covered by prefetchs (Count)
system.cpu.dcache.prefetcher.demandMshrMissesPerPC::401050         1001                       # demands not covered by prefetchs (Count)
system.cpu.dcache.prefetcher.demandMshrMissesPerPC::401088          853                       # demands not covered by prefetchs (Count)
[...]
system.membus.pktCount_system.l2.mem_side_port::system.realview.gic.pio          696                       # Packet count per connected requestor and responder (Count)
system.membus.pktCount_system.l2.mem_side_port::system.mem_ctrls.port     29863815                       # Packet count per connected requestor and responder (Count)
system.membus.pktCount_system.l2.mem_side_port::total     29865621                       # Packet count per connected requestor and responder (Count)
system.membus.pktCount::total                29865621                       # Packet count per connected requestor and responder (Count)
system.membus.pktSize_system.l2.mem_side_port::system.bridge.cpu_side_port         1368                       # Cumulative packet size per connected requestor and responder (Byte)
system.membus.pktSize_system.l2.mem_side_port::system.realview.gic.pio         1392                       # Cumulative packet size per connected requestor and responder (Byte)
system.membus.pktSize_system.l2.mem_side_port::system.mem_ctrls.port    638544960                       # Cumulative packet size per connected requestor and responder (Byte)
system.membus.pktSize_system.l2.mem_side_port::total    638547720                       # Cumulative packet size per connected requestor and responder (Byte)
system.membus.pktSize::total                638547720                       # Cumulative packet size per connected requestor and responder (Byte)
system.membus.snoops                                0                       # Total snoops (Count)
system.membus.snoopTraffic                          0                       # Total snoop traffic (Byte)
system.membus.snoopFanout::samples           11963815                       # Request fanout histogram (Count)
system.membus.snoopFanout::mean                     0                       # Request fanout histogram (Count)
system.membus.snoopFanout::stdev                    0                       # Request fanout histogram (Count)
system.membus.snoopFanout::underflows               0      0.00%      0.00% # Request fanout histogram (Count)
system.membus.snoopFanout::0                 11963815    100.00%    100.00% # Request fanout histogram (Count)
system.membus.snoopFanout::1                        0      0.00%    100.00% # Request fanout histogram (Count)
system.membus.snoopFanout::2                        0      0.00%    100.00% # Request fanout histogram (Count)
system.membus.snoopFanout::overflows                0      0.00%    100.00% # Request fanout histogram (Count)
system.membus.snoopFanout::min_value                0                       # Request fanout histogram (Count)
system.membus.snoopFanout::max_value                0                       # Request fanout histogram (Count)
system.membus.snoopFanout::total             11963815                       # Request fanout histogram (Count)
system.membus.badaddr_responder.power_state.pwrStateResidencyTicks::UNDEFINED 1379878564800                       # Cumulative time (in ticks) in various power states (Tick)
system.membus.power_state.pwrStateResidencyTicks::UNDEFINED 1379878564800                       # Cumulative time (in ticks) in various power states (Tick)
system.membus.reqLayer0.occupancy              966400                       # Layer occupancy (ticks) (Tick)
system.membus.reqLayer0.utilization               0.0                       # Layer utilization (Ratio)
system.membus.reqLayer12.occupancy             568200                       # Layer occupancy (ticks) (Tick)
system.membus.reqLayer12.utilization              0.0                       # Layer utilization (Ratio)
system.membus.reqLayer15.occupancy        29901849509                       # Layer occupancy (ticks) (Tick)
system.membus.reqLayer15.utilization              0.1                       # Layer utilization (Ratio)
system.membus.respLayer2.occupancy        49766548000                       # Layer occupancy (ticks) (Tick)
system.membus.respLayer2.utilization              0.1                       # Layer utilization (Ratio)
system.membus.snoop_filter.totRequests       21919281                       # Total number of requests made to the snoop filter. (Count)
system.membus.snoop_filter.hitSingleRequests      9956494                       # Number of requests hitting in the snoop filter with a single holder of the requested data. (Count)
system.membus.snoop_filter.hitMultiRequests            0                       # Number of requests hitting in the snoop filter with multiple (>1) holders of the requested data. (Count)
system.membus.snoop_filter.totSnoops                0                       # Total number of snoops made to the snoop filter. (Count)
system.membus.snoop_filter.hitSingleSnoops            0                       # Number of snoops hitting in the snoop filter with a single holder of the requested data. (Count)
system.membus.snoop_filter.hitMultiSnoops            0                       # Number of snoops hitting in the snoop filter with multiple (>1) holders of the requested data. (Count)
system.pci_ide.disks.IdeDisk.dmaReadFullPages            0                       # Number of full page size DMA reads (not PRD). (Count)
system.pci_ide.disks.IdeDisk.dmaReadBytes            0                       # Number of bytes transfered via DMA reads (not PRD). (Byte)
system.pci_ide.disks.IdeDisk.dmaReadTxs             0                       # Number of DMA read transactions (not PRD). (Count)
system.pci_ide.disks.IdeDisk.dmaWriteFullPages            0                       # Number of full page size DMA writes. (Count)
system.pci_ide.disks.IdeDisk.dmaWriteBytes            0                       # Number of bytes transfered via DMA writes. (Byte)
system.pci_ide.disks.IdeDisk.dmaWriteTxs            0                       # Number of DMA write transactions. (Count)
system.pci_ide.power_state.pwrStateResidencyTicks::UNDEFINED 1379878564800                       # Cumulative time (in ticks) in various power states (Tick)
system.realview.bootmem.power_state.pwrStateResidencyTicks::UNDEFINED 1379878564800                       # Cumulative time (in ticks) in various power states (Tick)
system.realview.clock24MHz.clock                41667                       # Clock period in ticks (Tick)
system.realview.clock32KHz.clock             31250000                       # Clock period in ticks (Tick)
system.realview.dcc.osc_cpu.clock               16667                       # Clock period in ticks (Tick)
system.realview.dcc.osc_ddr.clock               25000                       # Clock period in ticks (Tick)
system.realview.dcc.osc_hsbm.clock              25000                       # Clock period in ticks (Tick)
system.realview.dcc.osc_pxl.clock               42105                       # Clock period in ticks (Tick)
system.realview.dcc.osc_smb.clock               20000                       # Clock period in ticks (Tick)
system.realview.dcc.osc_sys.clock               16667                       # Clock period in ticks (Tick)
system.realview.el2_watchdog.power_state.pwrStateResidencyTicks::UNDEFINED 1379878564800                       # Cumulative time (in ticks) in various power states (Tick)
system.realview.energy_ctrl.power_state.pwrStateResidencyTicks::UNDEFINED 1379878564800                       # Cumulative time (in ticks) in various power states (Tick)
system.realview.flash0.power_state.pwrStateResidencyTicks::UNDEFINED 1379878564800                       # Cumulative time (in ticks) in various power states (Tick)
system.realview.flash1.power_state.pwrStateResidencyTicks::UNDEFINED 1379878564800                       # Cumulative time (in ticks) in various power states (Tick)
system.realview.generic_timer_mem.frames0.power_state.pwrStateResidencyTicks::UNDEFINED 1379878564800                       # Cumulative time (in ticks) in various power states (Tick)
system.realview.generic_timer_mem.frames1.power_state.pwrStateResidencyTicks::UNDEFINED 1379878564800                       # Cumulative time (in ticks) in various power states (Tick)
system.realview.generic_timer_mem.power_state.pwrStateResidencyTicks::UNDEFINED 1379878564800                       # Cumulative time (in ticks) in various power states (Tick)
system.realview.gic.power_state.pwrStateResidencyTicks::UNDEFINED 1379878564800                       # Cumulative time (in ticks) in various power states (Tick)
system.realview.gicv2m.power_state.pwrStateResidencyTicks::UNDEFINED 1379878564800                       # Cumulative time (in ticks) in various power states (Tick)
system.realview.io_voltage.voltage           3.300000                       # Voltage in Volts (Volt)
system.realview.kmi0.power_state.pwrStateResidencyTicks::UNDEFINED 1379878564800                       # Cumulative time (in ticks) in various power states (Tick)
system.realview.kmi1.power_state.pwrStateResidencyTicks::UNDEFINED 1379878564800                       # Cumulative time (in ticks) in various power states (Tick)
system.realview.mcc.osc_clcd.clock              42105                       # Clock period in ticks (Tick)
system.realview.mcc.osc_mcc.clock               20000                       # Clock period in ticks (Tick)
system.realview.mcc.osc_peripheral.clock        41667                       # Clock period in ticks (Tick)
system.realview.mcc.osc_system_bus.clock        41667                       # Clock period in ticks (Tick)
system.realview.non_trusted_sram.power_state.pwrStateResidencyTicks::UNDEFINED 1379878564800                       # Cumulative time (in ticks) in various power states (Tick)
system.realview.pci_host.power_state.pwrStateResidencyTicks::UNDEFINED 1379878564800                       # Cumulative time (in ticks) in various power states (Tick)
system.realview.pwr_ctrl.power_state.pwrStateResidencyTicks::UNDEFINED 1379878564800                       # Cumulative time (in ticks) in various power states (Tick)
system.realview.realview_io.power_state.pwrStateResidencyTicks::UNDEFINED 1379878564800                       # Cumulative time (in ticks) in various power states (Tick)
system.realview.rtc.power_state.pwrStateResidencyTicks::UNDEFINED 1379878564800                       # Cumulative time (in ticks) in various power states (Tick)
system.realview.system_watchdog.power_state.pwrStateResidencyTicks::UNDEFINED 1379878564800                       # Cumulative time (in ticks) in various power states (Tick)
system.realview.trusted_dram.power_state.pwrStateResidencyTicks::UNDEFINED 1379878564800                       # Cumulative time (in ticks) in various power states (Tick)
system.realview.trusted_sram.power_state.pwrStateResidencyTicks::UNDEFINED 1379878564800                       # Cumulative time (in ticks) in various power states (Tick)
system.realview.trusted_watchdog.power_state.pwrStateResidencyTicks::UNDEFINED 1379878564800                       # Cumulative time (in ticks) in various power states (Tick)
system.realview.uart0.power_state.pwrStateResidencyTicks::UNDEFINED 1379878564800                       # Cumulative time (in ticks) in various power states (Tick)
system.realview.uart1.power_state.pwrStateResidencyTicks::UNDEFINED 1379878564800                       # Cumulative time (in ticks) in various power states (Tick)
system.realview.uart2.power_state.pwrStateResidencyTicks::UNDEFINED 1379878564800                       # Cumulative time (in ticks) in various power states (Tick)
system.realview.uart3.power_state.pwrStateResidencyTicks::UNDEFINED 1379878564800                       # Cumulative time (in ticks) in various power states (Tick)
system.realview.vgic.power_state.pwrStateResidencyTicks::UNDEFINED 1379878564800                       # Cumulative time (in ticks) in various power states (Tick)
system.realview.vio0.power_state.pwrStateResidencyTicks::UNDEFINED 1379878564800                       # Cumulative time (in ticks) in various power states (Tick)
system.realview.vio1.power_state.pwrStateResidencyTicks::UNDEFINED 1379878564800                       # Cumulative time (in ticks) in various power states (Tick)
system.realview.vram.power_state.pwrStateResidencyTicks::UNDEFINED 1379878564800                       # Cumulative time (in ticks) in various power states (Tick)
system.realview.watchdog.power_state.pwrStateResidencyTicks::UNDEFINED 1379878564800                       # Cumulative time (in ticks) in various power states (Tick)
system.tol2bus.transDist::ReadReq             1027186                       # Transaction distribution (Count)
system.tol2bus.transDist::ReadResp           11192825                       # Transaction distribution (Count)
system.tol2bus.transDist::WriteReq                343                       # Transaction distribution (Count)
system.tol2bus.transDist::WriteResp               343                       # Transaction distribution (Count)
system.tol2bus.transDist::WritebackDirty        69734                       # Transaction distribution (Count)
system.tol2bus.transDist::WritebackClean     10129473                       # Transaction distribution (Count)
system.tol2bus.transDist::CleanEvict         10076566                       # Transaction distribution (Count)
system.tol2bus.transDist::UpgradeReq               29                       # Transaction distribution (Count)
system.tol2bus.transDist::UpgradeResp              29                       # Transaction distribution (Count)
system.tol2bus.transDist::ReadExReq              6956                       # Transaction distribution (Count)
system.tol2bus.transDist::ReadExResp             6956                       # Transaction distribution (Count)
system.tol2bus.transDist::ReadCleanReq          12425                       # Transaction distribution (Count)
system.tol2bus.transDist::ReadSharedReq      10153213                       # Transaction distribution (Count)
system.tol2bus.transDist::CleanSharedReq          192                       # Transaction distribution (Count)
system.tol2bus.transDist::InvalidateReq          2364                       # Transaction distribution (Count)
system.tol2bus.transDist::InvalidateResp         2364                       # Transaction distribution (Count)
system.tol2bus.pktCount_system.cpu.icache.mem_side_port::system.l2.cpu_side_port        37277                       # Packet count per connected requestor and responder (Count)
system.tol2bus.pktCount_system.cpu.dcache.mem_side_port::system.l2.cpu_side_port     30489655                       # Packet count per connected requestor and responder (Count)
system.tol2bus.pktCount_system.cpu.mmu.itb_walker.port::system.l2.cpu_side_port         2765                       # Packet count per connected requestor and responder (Count)
system.tol2bus.pktCount_system.cpu.mmu.dtb_walker.port::system.l2.cpu_side_port      2050171                       # Packet count per connected requestor and responder (Count)
system.tol2bus.pktCount::total               32579868                       # Packet count per connected requestor and responder (Count)
system.tol2bus.pktSize_system.cpu.icache.mem_side_port::system.l2.cpu_side_port      1590528                       # Cumulative packet size per connected requestor and responder (Byte)
system.tol2bus.pktSize_system.cpu.dcache.mem_side_port::system.l2.cpu_side_port   1300655688                       # Cumulative packet size per connected requestor and responder (Byte)
system.tol2bus.pktSize_system.cpu.mmu.itb_walker.port::system.l2.cpu_side_port        10616                       # Cumulative packet size per connected requestor and responder (Byte)
system.tol2bus.pktSize_system.cpu.mmu.dtb_walker.port::system.l2.cpu_side_port      8199864                       # Cumulative packet size per connected requestor and responder (Byte)
system.tol2bus.pktSize::total              1310456696                       # Cumulative packet size per connected requestor and responder (Byte)
system.tol2bus.snoops                        10101130                       # Total snoops (Count)
system.tol2bus.snoopTraffic                   1554400                       # Total snoop traffic (Byte)
system.tol2bus.snoopFanout::samples          21303523                       # Request fanout histogram (Count)
system.tol2bus.snoopFanout::mean             0.006841                       # Request fanout histogram (Count)
system.tol2bus.snoopFanout::stdev            0.082429                       # Request fanout histogram (Count)
system.tol2bus.snoopFanout::underflows              0      0.00%      0.00% # Request fanout histogram (Count)
system.tol2bus.snoopFanout::0                21157802     99.32%     99.32% # Request fanout histogram (Count)
system.tol2bus.snoopFanout::1                  145713      0.68%    100.00% # Request fanout histogram (Count)
system.tol2bus.snoopFanout::2                       8      0.00%    100.00% # Request fanout histogram (Count)
system.tol2bus.snoopFanout::overflows               0      0.00%    100.00% # Request fanout histogram (Count)
system.tol2bus.snoopFanout::min_value               0                       # Request fanout histogram (Count)
system.tol2bus.snoopFanout::max_value               2                       # Request fanout histogram (Count)
system.tol2bus.snoopFanout::total            21303523                       # Request fanout histogram (Count)
system.tol2bus.power_state.pwrStateResidencyTicks::UNDEFINED 1379878564800                       # Cumulative time (in ticks) in various power states (Tick)
system.tol2bus.reqLayer0.occupancy        17749114605                       # Layer occupancy (ticks) (Tick)
system.tol2bus.reqLayer0.utilization              0.0                       # Layer utilization (Ratio)
system.tol2bus.respLayer0.occupancy          14916786                       # Layer occupancy (ticks) (Tick)
system.tol2bus.respLayer0.utilization             0.0                       # Layer utilization (Ratio)
system.tol2bus.respLayer1.occupancy       12193864781                       # Layer occupancy (ticks) (Tick)
system.tol2bus.respLayer1.utilization             0.0                       # Layer utilization (Ratio)
system.tol2bus.respLayer2.occupancy           1152900                       # Layer occupancy (ticks) (Tick)
system.tol2bus.respLayer2.utilization             0.0                       # Layer utilization (Ratio)
system.tol2bus.respLayer3.occupancy         820193280                       # Layer occupancy (ticks) (Tick)
system.tol2bus.respLayer3.utilization             0.0                       # Layer utilization (Ratio)
system.tol2bus.snoop_filter.totRequests      20350534                       # Total number of requests made to the snoop filter. (Count)
system.tol2bus.snoop_filter.hitSingleRequests     10175383                       # Number of requests hitting in the snoop filter with a single holder of the requested data. (Count)
system.tol2bus.snoop_filter.hitMultiRequests          137                       # Number of requests hitting in the snoop filter with multiple (>1) holders of the requested data. (Count)
system.tol2bus.snoop_filter.totSnoops          145189                       # Total number of snoops made to the snoop filter. (Count)
system.tol2bus.snoop_filter.hitSingleSnoops       145181                       # Number of snoops hitting in the snoop filter with a single holder of the requested data. (Count)
system.tol2bus.snoop_filter.hitMultiSnoops            8                       # Number of snoops hitting in the snoop filter with multiple (>1) holders of the requested data. (Count)
system.voltage_domain.voltage                       1                       # Voltage in Volts (Volt)
system.workload.inst.arm                            0                       # number of arm instructions executed (Count)
system.workload.inst.quiesce                        0                       # number of quiesce instructions executed (Count)

---------- End Simulation Statistics   ----------
