
---------- Begin Simulation Statistics ----------
simSeconds                                   0.749107                       # Number of seconds simulated (Second)
simTicks                                 749106848000                       # Number of ticks simulated (Tick)
finalTick                                2063491614800                       # Number of ticks from beginning of simulation (restored from checkpoints and never reset) (Tick)
simFreq                                  1000000000000                       # The number of ticks per simulated second ((Tick/Second))
hostSeconds                                  10490.47                       # Real time elapsed on the host (Second)
hostTickRate                                 71408351                       # The number of ticks simulated per host second (ticks/s) ((Tick/Second))
hostMemory                                    9151344                       # Number of bytes of host memory used (Byte)
simInsts                                   1076701989                       # Number of instructions simulated (Count)
simOps                                     1203403561                       # Number of ops (including micro ops) simulated (Count)
hostInstRate                                   102636                       # Simulator instruction rate (inst/s) ((Count/Second))
hostOpRate                                     114714                       # Simulator op (including micro ops) rate (op/s) ((Count/Second))
system.bridge.power_state.pwrStateResidencyTicks::UNDEFINED 2063491614800                       # Cumulative time (in ticks) in various power states (Tick)
system.clk_domain.clock                          1000                       # Clock period in ticks (Tick)
system.cpu.numCycles                       1872767120                       # Number of cpu cycles simulated (Cycle)
system.cpu.numWorkItemsStarted                      0                       # Number of work items this cpu started (Count)
system.cpu.numWorkItemsCompleted                    0                       # Number of work items this cpu completed (Count)
system.cpu.instsAdded                       239067940                       # Number of instructions added to the IQ (excludes non-spec) (Count)
system.cpu.nonSpecInstsAdded                    12136                       # Number of non-speculative instructions added to the IQ (Count)
system.cpu.instsIssued                      199608324                       # Number of instructions issued (Count)
system.cpu.squashedInstsIssued                4238891                       # Number of squashed instructions issued (Count)
system.cpu.squashedInstsExamined             54164130                       # Number of squashed instructions iterated over during squash; mainly for profiling (Count)
system.cpu.squashedOperandsExamined          90355645                       # Number of squashed operands that are examined and possibly removed from graph (Count)
system.cpu.squashedNonSpecRemoved                 777                       # Number of squashed non-spec instructions that were removed (Count)
system.cpu.numIssuedDist::samples          1872724256                       # Number of insts issued each cycle (Count)
system.cpu.numIssuedDist::mean               0.106587                       # Number of insts issued each cycle (Count)
system.cpu.numIssuedDist::stdev              0.420302                       # Number of insts issued each cycle (Count)
system.cpu.numIssuedDist::underflows                0      0.00%      0.00% # Number of insts issued each cycle (Count)
system.cpu.numIssuedDist::0                1730666293     92.41%     92.41% # Number of insts issued each cycle (Count)
system.cpu.numIssuedDist::1                 103194597      5.51%     97.92% # Number of insts issued each cycle (Count)
system.cpu.numIssuedDist::2                  20184509      1.08%     99.00% # Number of insts issued each cycle (Count)
system.cpu.numIssuedDist::3                  18670721      1.00%    100.00% # Number of insts issued each cycle (Count)
system.cpu.numIssuedDist::4                      8134      0.00%    100.00% # Number of insts issued each cycle (Count)
system.cpu.numIssuedDist::5                         2      0.00%    100.00% # Number of insts issued each cycle (Count)
system.cpu.numIssuedDist::6                         0      0.00%    100.00% # Number of insts issued each cycle (Count)
system.cpu.numIssuedDist::7                         0      0.00%    100.00% # Number of insts issued each cycle (Count)
system.cpu.numIssuedDist::8                         0      0.00%    100.00% # Number of insts issued each cycle (Count)
system.cpu.numIssuedDist::overflows                 0      0.00%    100.00% # Number of insts issued each cycle (Count)
system.cpu.numIssuedDist::min_value                 0                       # Number of insts issued each cycle (Count)
system.cpu.numIssuedDist::max_value                 5                       # Number of insts issued each cycle (Count)
system.cpu.numIssuedDist::total            1872724256                       # Number of insts issued each cycle (Count)
system.cpu.statFuBusy::No_OpClass                   0      0.00%      0.00% # attempts to use FU when none available (Count)
system.cpu.statFuBusy::IntAlu                 8186447     14.36%     14.36% # attempts to use FU when none available (Count)
system.cpu.statFuBusy::IntMult                   3173      0.01%     14.37% # attempts to use FU when none available (Count)
system.cpu.statFuBusy::IntDiv                    5301      0.01%     14.38% # attempts to use FU when none available (Count)
system.cpu.statFuBusy::FloatAdd                     0      0.00%     14.38% # attempts to use FU when none available (Count)
system.cpu.statFuBusy::FloatCmp                     0      0.00%     14.38% # attempts to use FU when none available (Count)
system.cpu.statFuBusy::FloatCvt                     0      0.00%     14.38% # attempts to use FU when none available (Count)
system.cpu.statFuBusy::FloatMult                    0      0.00%     14.38% # attempts to use FU when none available (Count)
system.cpu.statFuBusy::FloatMultAcc                 0      0.00%     14.38% # attempts to use FU when none available (Count)
system.cpu.statFuBusy::FloatDiv                     0      0.00%     14.38% # attempts to use FU when none available (Count)
system.cpu.statFuBusy::FloatMisc                    0      0.00%     14.38% # attempts to use FU when none available (Count)
system.cpu.statFuBusy::FloatSqrt                    0      0.00%     14.38% # attempts to use FU when none available (Count)
system.cpu.statFuBusy::SimdAdd                      0      0.00%     14.38% # attempts to use FU when none available (Count)
system.cpu.statFuBusy::SimdAddAcc                   0      0.00%     14.38% # attempts to use FU when none available (Count)
system.cpu.statFuBusy::SimdAlu                      0      0.00%     14.38% # attempts to use FU when none available (Count)
system.cpu.statFuBusy::SimdCmp                      0      0.00%     14.38% # attempts to use FU when none available (Count)
system.cpu.statFuBusy::SimdCvt                      0      0.00%     14.38% # attempts to use FU when none available (Count)
system.cpu.statFuBusy::SimdMisc                     0      0.00%     14.38% # attempts to use FU when none available (Count)
system.cpu.statFuBusy::SimdMult                     0      0.00%     14.38% # attempts to use FU when none available (Count)
system.cpu.statFuBusy::SimdMultAcc                  0      0.00%     14.38% # attempts to use FU when none available (Count)
system.cpu.statFuBusy::SimdShift                    0      0.00%     14.38% # attempts to use FU when none available (Count)
system.cpu.statFuBusy::SimdShiftAcc                 0      0.00%     14.38% # attempts to use FU when none available (Count)
system.cpu.statFuBusy::SimdDiv                      0      0.00%     14.38% # attempts to use FU when none available (Count)
system.cpu.statFuBusy::SimdSqrt                     0      0.00%     14.38% # attempts to use FU when none available (Count)
system.cpu.statFuBusy::SimdFloatAdd                 0      0.00%     14.38% # attempts to use FU when none available (Count)
system.cpu.statFuBusy::SimdFloatAlu                 0      0.00%     14.38% # attempts to use FU when none available (Count)
system.cpu.statFuBusy::SimdFloatCmp                 0      0.00%     14.38% # attempts to use FU when none available (Count)
system.cpu.statFuBusy::SimdFloatCvt                 0      0.00%     14.38% # attempts to use FU when none available (Count)
system.cpu.statFuBusy::SimdFloatDiv                 0      0.00%     14.38% # attempts to use FU when none available (Count)
system.cpu.statFuBusy::SimdFloatMisc                0      0.00%     14.38% # attempts to use FU when none available (Count)
system.cpu.statFuBusy::SimdFloatMult                0      0.00%     14.38% # attempts to use FU when none available (Count)
system.cpu.statFuBusy::SimdFloatMultAcc             0      0.00%     14.38% # attempts to use FU when none available (Count)
system.cpu.statFuBusy::SimdFloatSqrt                0      0.00%     14.38% # attempts to use FU when none available (Count)
system.cpu.statFuBusy::SimdReduceAdd                0      0.00%     14.38% # attempts to use FU when none available (Count)
system.cpu.statFuBusy::SimdReduceAlu                0      0.00%     14.38% # attempts to use FU when none available (Count)
system.cpu.statFuBusy::SimdReduceCmp                0      0.00%     14.38% # attempts to use FU when none available (Count)
system.cpu.statFuBusy::SimdFloatReduceAdd            0      0.00%     14.38% # attempts to use FU when none available (Count)
system.cpu.statFuBusy::SimdFloatReduceCmp            0      0.00%     14.38% # attempts to use FU when none available (Count)
system.cpu.statFuBusy::SimdAes                      0      0.00%     14.38% # attempts to use FU when none available (Count)
system.cpu.statFuBusy::SimdAesMix                   0      0.00%     14.38% # attempts to use FU when none available (Count)
system.cpu.statFuBusy::SimdSha1Hash                 0      0.00%     14.38% # attempts to use FU when none available (Count)
system.cpu.statFuBusy::SimdSha1Hash2                0      0.00%     14.38% # attempts to use FU when none available (Count)
system.cpu.statFuBusy::SimdSha256Hash               0      0.00%     14.38% # attempts to use FU when none available (Count)
system.cpu.statFuBusy::SimdSha256Hash2              0      0.00%     14.38% # attempts to use FU when none available (Count)
system.cpu.statFuBusy::SimdShaSigma2                0      0.00%     14.38% # attempts to use FU when none available (Count)
system.cpu.statFuBusy::SimdShaSigma3                0      0.00%     14.38% # attempts to use FU when none available (Count)
system.cpu.statFuBusy::SimdPredAlu                  0      0.00%     14.38% # attempts to use FU when none available (Count)
system.cpu.statFuBusy::MemRead               48718135     85.48%     99.86% # attempts to use FU when none available (Count)
system.cpu.statFuBusy::MemWrite                 79025      0.14%    100.00% # attempts to use FU when none available (Count)
system.cpu.statFuBusy::FloatMemRead                 0      0.00%    100.00% # attempts to use FU when none available (Count)
system.cpu.statFuBusy::FloatMemWrite                0      0.00%    100.00% # attempts to use FU when none available (Count)
system.cpu.statFuBusy::IprAccess                    0      0.00%    100.00% # attempts to use FU when none available (Count)
system.cpu.statFuBusy::InstPrefetch                 0      0.00%    100.00% # attempts to use FU when none available (Count)
system.cpu.statIssuedInstType_0::No_OpClass          187      0.00%      0.00% # Number of instructions issued per FU type, per thread (Count)
system.cpu.statIssuedInstType_0::IntAlu     107567696     53.89%     53.89% # Number of instructions issued per FU type, per thread (Count)
system.cpu.statIssuedInstType_0::IntMult         6583      0.00%     53.89% # Number of instructions issued per FU type, per thread (Count)
system.cpu.statIssuedInstType_0::IntDiv          1127      0.00%     53.89% # Number of instructions issued per FU type, per thread (Count)
system.cpu.statIssuedInstType_0::FloatAdd            0      0.00%     53.89% # Number of instructions issued per FU type, per thread (Count)
system.cpu.statIssuedInstType_0::FloatCmp            0      0.00%     53.89% # Number of instructions issued per FU type, per thread (Count)
system.cpu.statIssuedInstType_0::FloatCvt            0      0.00%     53.89% # Number of instructions issued per FU type, per thread (Count)
system.cpu.statIssuedInstType_0::FloatMult            0      0.00%     53.89% # Number of instructions issued per FU type, per thread (Count)
system.cpu.statIssuedInstType_0::FloatMultAcc            0      0.00%     53.89% # Number of instructions issued per FU type, per thread (Count)
system.cpu.statIssuedInstType_0::FloatDiv            0      0.00%     53.89% # Number of instructions issued per FU type, per thread (Count)
system.cpu.statIssuedInstType_0::FloatMisc            0      0.00%     53.89% # Number of instructions issued per FU type, per thread (Count)
system.cpu.statIssuedInstType_0::FloatSqrt            0      0.00%     53.89% # Number of instructions issued per FU type, per thread (Count)
system.cpu.statIssuedInstType_0::SimdAdd            0      0.00%     53.89% # Number of instructions issued per FU type, per thread (Count)
system.cpu.statIssuedInstType_0::SimdAddAcc            0      0.00%     53.89% # Number of instructions issued per FU type, per thread (Count)
system.cpu.statIssuedInstType_0::SimdAlu            0      0.00%     53.89% # Number of instructions issued per FU type, per thread (Count)
system.cpu.statIssuedInstType_0::SimdCmp            0      0.00%     53.89% # Number of instructions issued per FU type, per thread (Count)
system.cpu.statIssuedInstType_0::SimdCvt            0      0.00%     53.89% # Number of instructions issued per FU type, per thread (Count)
system.cpu.statIssuedInstType_0::SimdMisc            0      0.00%     53.89% # Number of instructions issued per FU type, per thread (Count)
system.cpu.statIssuedInstType_0::SimdMult            0      0.00%     53.89% # Number of instructions issued per FU type, per thread (Count)
system.cpu.statIssuedInstType_0::SimdMultAcc            0      0.00%     53.89% # Number of instructions issued per FU type, per thread (Count)
system.cpu.statIssuedInstType_0::SimdShift            0      0.00%     53.89% # Number of instructions issued per FU type, per thread (Count)
system.cpu.statIssuedInstType_0::SimdShiftAcc            0      0.00%     53.89% # Number of instructions issued per FU type, per thread (Count)
system.cpu.statIssuedInstType_0::SimdDiv            0      0.00%     53.89% # Number of instructions issued per FU type, per thread (Count)
system.cpu.statIssuedInstType_0::SimdSqrt            0      0.00%     53.89% # Number of instructions issued per FU type, per thread (Count)
system.cpu.statIssuedInstType_0::SimdFloatAdd            0      0.00%     53.89% # Number of instructions issued per FU type, per thread (Count)
system.cpu.statIssuedInstType_0::SimdFloatAlu            0      0.00%     53.89% # Number of instructions issued per FU type, per thread (Count)
system.cpu.statIssuedInstType_0::SimdFloatCmp            0      0.00%     53.89% # Number of instructions issued per FU type, per thread (Count)
system.cpu.statIssuedInstType_0::SimdFloatCvt            0      0.00%     53.89% # Number of instructions issued per FU type, per thread (Count)
system.cpu.statIssuedInstType_0::SimdFloatDiv            0      0.00%     53.89% # Number of instructions issued per FU type, per thread (Count)
system.cpu.statIssuedInstType_0::SimdFloatMisc            0      0.00%     53.89% # Number of instructions issued per FU type, per thread (Count)
system.cpu.statIssuedInstType_0::SimdFloatMult            0      0.00%     53.89% # Number of instructions issued per FU type, per thread (Count)
system.cpu.statIssuedInstType_0::SimdFloatMultAcc            0      0.00%     53.89% # Number of instructions issued per FU type, per thread (Count)
system.cpu.statIssuedInstType_0::SimdFloatSqrt            0      0.00%     53.89% # Number of instructions issued per FU type, per thread (Count)
system.cpu.statIssuedInstType_0::SimdReduceAdd            0      0.00%     53.89% # Number of instructions issued per FU type, per thread (Count)
system.cpu.statIssuedInstType_0::SimdReduceAlu            0      0.00%     53.89% # Number of instructions issued per FU type, per thread (Count)
system.cpu.statIssuedInstType_0::SimdReduceCmp            0      0.00%     53.89% # Number of instructions issued per FU type, per thread (Count)
system.cpu.statIssuedInstType_0::SimdFloatReduceAdd            0      0.00%     53.89% # Number of instructions issued per FU type, per thread (Count)
system.cpu.statIssuedInstType_0::SimdFloatReduceCmp            0      0.00%     53.89% # Number of instructions issued per FU type, per thread (Count)
system.cpu.statIssuedInstType_0::SimdAes            0      0.00%     53.89% # Number of instructions issued per FU type, per thread (Count)
system.cpu.statIssuedInstType_0::SimdAesMix            0      0.00%     53.89% # Number of instructions issued per FU type, per thread (Count)
system.cpu.statIssuedInstType_0::SimdSha1Hash            0      0.00%     53.89% # Number of instructions issued per FU type, per thread (Count)
system.cpu.statIssuedInstType_0::SimdSha1Hash2            0      0.00%     53.89% # Number of instructions issued per FU type, per thread (Count)
system.cpu.statIssuedInstType_0::SimdSha256Hash            0      0.00%     53.89% # Number of instructions issued per FU type, per thread (Count)
system.cpu.statIssuedInstType_0::SimdSha256Hash2            0      0.00%     53.89% # Number of instructions issued per FU type, per thread (Count)
system.cpu.statIssuedInstType_0::SimdShaSigma2            0      0.00%     53.89% # Number of instructions issued per FU type, per thread (Count)
system.cpu.statIssuedInstType_0::SimdShaSigma3            0      0.00%     53.89% # Number of instructions issued per FU type, per thread (Count)
system.cpu.statIssuedInstType_0::SimdPredAlu            0      0.00%     53.89% # Number of instructions issued per FU type, per thread (Count)
system.cpu.statIssuedInstType_0::MemRead     91860420     46.02%     99.91% # Number of instructions issued per FU type, per thread (Count)
system.cpu.statIssuedInstType_0::MemWrite       172311      0.09%    100.00% # Number of instructions issued per FU type, per thread (Count)
system.cpu.statIssuedInstType_0::FloatMemRead            0      0.00%    100.00% # Number of instructions issued per FU type, per thread (Count)
system.cpu.statIssuedInstType_0::FloatMemWrite            0      0.00%    100.00% # Number of instructions issued per FU type, per thread (Count)
system.cpu.statIssuedInstType_0::IprAccess            0      0.00%    100.00% # Number of instructions issued per FU type, per thread (Count)
system.cpu.statIssuedInstType_0::InstPrefetch            0      0.00%    100.00% # Number of instructions issued per FU type, per thread (Count)
system.cpu.statIssuedInstType_0::total      199608324                       # Number of instructions issued per FU type, per thread (Count)
system.cpu.issueRate                         0.106585                       # Inst issue rate ((Count/Cycle))
system.cpu.fuBusy                            56992081                       # FU busy when requested (Count)
system.cpu.fuBusyRate                        0.285520                       # FU busy rate (busy events/executed inst) ((Count/Count))
system.cpu.intInstQueueReads               2333171692                       # Number of integer instruction queue reads (Count)
system.cpu.intInstQueueWrites               293244525                       # Number of integer instruction queue writes (Count)
system.cpu.intInstQueueWakeupAccesses       193982536                       # Number of integer instruction queue wakeup accesses (Count)
system.cpu.fpInstQueueReads                         0                       # Number of floating instruction queue reads (Count)
system.cpu.fpInstQueueWrites                        0                       # Number of floating instruction queue writes (Count)
system.cpu.fpInstQueueWakeupAccesses                0                       # Number of floating instruction queue wakeup accesses (Count)
system.cpu.vecInstQueueReads                      183                       # Number of vector instruction queue reads (Count)
system.cpu.vecInstQueueWrites                      69                       # Number of vector instruction queue writes (Count)
system.cpu.vecInstQueueWakeupAccesses              64                       # Number of vector instruction queue wakeup accesses (Count)
system.cpu.intAluAccesses                   256600102                       # Number of integer alu accesses (Count)
system.cpu.fpAluAccesses                            0                       # Number of floating point alu accesses (Count)
system.cpu.vecAluAccesses                         116                       # Number of vector alu accesses (Count)
system.cpu.numInsts                         194347007                       # Number of executed instructions (Count)
system.cpu.numLoadInsts                      86605718                       # Number of load instructions executed (Count)
system.cpu.numSquashedInsts                   3038264                       # Number of squashed instructions skipped in execute (Count)
system.cpu.numSwp                                   0                       # Number of swp insts executed (Count)
system.cpu.numNop                                3216                       # Number of nop insts executed (Count)
system.cpu.numRefs                           86776497                       # Number of memory reference insts executed (Count)
system.cpu.numBranches                       40075461                       # Number of branches executed (Count)
system.cpu.numStoreInsts                       170779                       # Number of stores executed (Count)
system.cpu.numRate                           0.103775                       # Inst execution rate ((Count/Cycle))
system.cpu.timesIdled                             451                       # Number of times that the entire CPU went into an idle state and unscheduled itself (Count)
system.cpu.idleCycles                           42864                       # Total number of cycles that the CPU has spent unscheduled due to idling (Cycle)
system.cpu.committedInsts                   184704563                       # Number of Instructions Simulated (Count)
system.cpu.committedOps                     184915951                       # Number of Ops (including micro ops) Simulated (Count)
system.cpu.cpi                              10.139257                       # CPI: Cycles Per Instruction ((Cycle/Count))
system.cpu.totalCpi                         10.139257                       # CPI: Total CPI of All Threads ((Cycle/Count))
system.cpu.ipc                               0.098627                       # IPC: Instructions Per Cycle ((Count/Cycle))
system.cpu.totalIpc                          0.098627                       # IPC: Total IPC of All Threads ((Count/Cycle))
system.cpu.intRegfileReads                  253269487                       # Number of integer regfile reads (Count)
system.cpu.intRegfileWrites                 114452456                       # Number of integer regfile writes (Count)
system.cpu.vecRegfileReads                         64                       # number of vector regfile reads (Count)
system.cpu.ccRegfileReads                   117406140                       # number of cc regfile reads (Count)
system.cpu.ccRegfileWrites                  118180326                       # number of cc regfile writes (Count)
system.cpu.miscRegfileReads                1954635570                       # number of misc regfile reads (Count)
system.cpu.miscRegfileWrites                    11964                       # number of misc regfile writes (Count)
system.cpu.MemDepUnit__0.insertedLoads      101285560                       # Number of loads inserted to the mem dependence unit. (Count)
system.cpu.MemDepUnit__0.insertedStores        178987                       # Number of stores inserted to the mem dependence unit. (Count)
system.cpu.MemDepUnit__0.conflictingLoads        25350                       # Number of conflicting loads. (Count)
system.cpu.MemDepUnit__0.conflictingStores        20406                       # Number of conflicting stores. (Count)
system.cpu.MemDepUnit__1.insertedLoads              0                       # Number of loads inserted to the mem dependence unit. (Count)
system.cpu.MemDepUnit__1.insertedStores             0                       # Number of stores inserted to the mem dependence unit. (Count)
system.cpu.MemDepUnit__1.conflictingLoads            0                       # Number of conflicting loads. (Count)
system.cpu.MemDepUnit__1.conflictingStores            0                       # Number of conflicting stores. (Count)
system.cpu.MemDepUnit__2.insertedLoads              0                       # Number of loads inserted to the mem dependence unit. (Count)
system.cpu.MemDepUnit__2.insertedStores             0                       # Number of stores inserted to the mem dependence unit. (Count)
system.cpu.MemDepUnit__2.conflictingLoads            0                       # Number of conflicting loads. (Count)
system.cpu.MemDepUnit__2.conflictingStores            0                       # Number of conflicting stores. (Count)
system.cpu.MemDepUnit__3.insertedLoads              0                       # Number of loads inserted to the mem dependence unit. (Count)
system.cpu.MemDepUnit__3.insertedStores             0                       # Number of stores inserted to the mem dependence unit. (Count)
system.cpu.MemDepUnit__3.conflictingLoads            0                       # Number of conflicting loads. (Count)
system.cpu.MemDepUnit__3.conflictingStores            0                       # Number of conflicting stores. (Count)
system.cpu.branchPred.lookups                68384727                       # Number of BP lookups (Count)
system.cpu.branchPred.condPredicted          68246340                       # Number of conditional branches predicted (Count)
system.cpu.branchPred.condIncorrect           1921139                       # Number of conditional branches incorrect (Count)
system.cpu.branchPred.BTBLookups             23643354                       # Number of BTB lookups (Count)
system.cpu.branchPred.BTBUpdates               352380                       # Number of BTB updates (Count)
system.cpu.branchPred.BTBHits                23626253                       # Number of BTB hits (Count)
system.cpu.branchPred.BTBHitRatio            0.999277                       # BTB Hit Ratio (Ratio)
system.cpu.branchPred.RASUsed                   57009                       # Number of times the RAS was used to get a target. (Count)
system.cpu.branchPred.RASIncorrect                206                       # Number of incorrect RAS predictions. (Count)
system.cpu.branchPred.indirectLookups            4171                       # Number of indirect predictor lookups. (Count)
system.cpu.branchPred.indirectHits               3325                       # Number of indirect target hits. (Count)
system.cpu.branchPred.indirectMisses              846                       # Number of indirect misses. (Count)
system.cpu.branchPred.indirectMispredicted          168                       # Number of mispredicted indirect branches. (Count)
system.cpu.commit.commitSquashedInsts        52862030                       # The number of squashed insts skipped by commit (Count)
system.cpu.commit.commitNonSpecStalls           11359                       # The number of times commit has been forced to stall to communicate backwards (Count)
system.cpu.commit.branchMispredicts           1915748                       # The number of times a branch was mispredicted (Count)
system.cpu.commit.numCommittedDist::samples   1864981223                       # Number of insts commited each cycle (Count)
system.cpu.commit.numCommittedDist::mean     0.099153                       # Number of insts commited each cycle (Count)
system.cpu.commit.numCommittedDist::stdev     0.546600                       # Number of insts commited each cycle (Count)
system.cpu.commit.numCommittedDist::underflows            0      0.00%      0.00% # Number of insts commited each cycle (Count)
system.cpu.commit.numCommittedDist::0      1776036374     95.23%     95.23% # Number of insts commited each cycle (Count)
system.cpu.commit.numCommittedDist::1        41889397      2.25%     97.48% # Number of insts commited each cycle (Count)
system.cpu.commit.numCommittedDist::2        23660447      1.27%     98.75% # Number of insts commited each cycle (Count)
system.cpu.commit.numCommittedDist::3        12954241      0.69%     99.44% # Number of insts commited each cycle (Count)
system.cpu.commit.numCommittedDist::4          272005      0.01%     99.45% # Number of insts commited each cycle (Count)
system.cpu.commit.numCommittedDist::5         8519480      0.46%     99.91% # Number of insts commited each cycle (Count)
system.cpu.commit.numCommittedDist::6           14222      0.00%     99.91% # Number of insts commited each cycle (Count)
system.cpu.commit.numCommittedDist::7            5063      0.00%     99.91% # Number of insts commited each cycle (Count)
system.cpu.commit.numCommittedDist::8         1629994      0.09%    100.00% # Number of insts commited each cycle (Count)
system.cpu.commit.numCommittedDist::overflows            0      0.00%    100.00% # Number of insts commited each cycle (Count)
system.cpu.commit.numCommittedDist::min_value            0                       # Number of insts commited each cycle (Count)
system.cpu.commit.numCommittedDist::max_value            8                       # Number of insts commited each cycle (Count)
system.cpu.commit.numCommittedDist::total   1864981223                       # Number of insts commited each cycle (Count)
system.cpu.commit.instsCommitted            184707771                       # Number of instructions committed (Count)
system.cpu.commit.opsCommitted              184919159                       # Number of ops (including micro ops) committed (Count)
system.cpu.commit.memRefs                    77859857                       # Number of memory references committed (Count)
system.cpu.commit.loads                      77696660                       # Number of loads committed (Count)
system.cpu.commit.amos                              0                       # Number of atomic instructions committed (Count)
system.cpu.commit.membars                        7541                       # Number of memory barriers committed (Count)
system.cpu.commit.branches                   39848549                       # Number of branches committed (Count)
system.cpu.commit.vectorInstructions               64                       # Number of committed Vector instructions. (Count)
system.cpu.commit.floating                          0                       # Number of committed floating point instructions. (Count)
system.cpu.commit.integer                   170791025                       # Number of committed integer instructions. (Count)
system.cpu.commit.functionCalls                 41459                       # Number of function calls committed. (Count)
system.cpu.commit.committedInstType_0::No_OpClass            0      0.00%      0.00% # Class of committed instruction (Count)
system.cpu.commit.committedInstType_0::IntAlu    107051596     57.89%     57.89% # Class of committed instruction (Count)
system.cpu.commit.committedInstType_0::IntMult         6581      0.00%     57.89% # Class of committed instruction (Count)
system.cpu.commit.committedInstType_0::IntDiv         1125      0.00%     57.90% # Class of committed instruction (Count)
system.cpu.commit.committedInstType_0::FloatAdd            0      0.00%     57.90% # Class of committed instruction (Count)
system.cpu.commit.committedInstType_0::FloatCmp            0      0.00%     57.90% # Class of committed instruction (Count)
system.cpu.commit.committedInstType_0::FloatCvt            0      0.00%     57.90% # Class of committed instruction (Count)
system.cpu.commit.committedInstType_0::FloatMult            0      0.00%     57.90% # Class of committed instruction (Count)
system.cpu.commit.committedInstType_0::FloatMultAcc            0      0.00%     57.90% # Class of committed instruction (Count)
system.cpu.commit.committedInstType_0::FloatDiv            0      0.00%     57.90% # Class of committed instruction (Count)
system.cpu.commit.committedInstType_0::FloatMisc            0      0.00%     57.90% # Class of committed instruction (Count)
system.cpu.commit.committedInstType_0::FloatSqrt            0      0.00%     57.90% # Class of committed instruction (Count)
system.cpu.commit.committedInstType_0::SimdAdd            0      0.00%     57.90% # Class of committed instruction (Count)
system.cpu.commit.committedInstType_0::SimdAddAcc            0      0.00%     57.90% # Class of committed instruction (Count)
system.cpu.commit.committedInstType_0::SimdAlu            0      0.00%     57.90% # Class of committed instruction (Count)
system.cpu.commit.committedInstType_0::SimdCmp            0      0.00%     57.90% # Class of committed instruction (Count)
system.cpu.commit.committedInstType_0::SimdCvt            0      0.00%     57.90% # Class of committed instruction (Count)
system.cpu.commit.committedInstType_0::SimdMisc            0      0.00%     57.90% # Class of committed instruction (Count)
system.cpu.commit.committedInstType_0::SimdMult            0      0.00%     57.90% # Class of committed instruction (Count)
system.cpu.commit.committedInstType_0::SimdMultAcc            0      0.00%     57.90% # Class of committed instruction (Count)
system.cpu.commit.committedInstType_0::SimdShift            0      0.00%     57.90% # Class of committed instruction (Count)
system.cpu.commit.committedInstType_0::SimdShiftAcc            0      0.00%     57.90% # Class of committed instruction (Count)
system.cpu.commit.committedInstType_0::SimdDiv            0      0.00%     57.90% # Class of committed instruction (Count)
system.cpu.commit.committedInstType_0::SimdSqrt            0      0.00%     57.90% # Class of committed instruction (Count)
system.cpu.commit.committedInstType_0::SimdFloatAdd            0      0.00%     57.90% # Class of committed instruction (Count)
system.cpu.commit.committedInstType_0::SimdFloatAlu            0      0.00%     57.90% # Class of committed instruction (Count)
system.cpu.commit.committedInstType_0::SimdFloatCmp            0      0.00%     57.90% # Class of committed instruction (Count)
system.cpu.commit.committedInstType_0::SimdFloatCvt            0      0.00%     57.90% # Class of committed instruction (Count)
system.cpu.commit.committedInstType_0::SimdFloatDiv            0      0.00%     57.90% # Class of committed instruction (Count)
system.cpu.commit.committedInstType_0::SimdFloatMisc            0      0.00%     57.90% # Class of committed instruction (Count)
system.cpu.commit.committedInstType_0::SimdFloatMult            0      0.00%     57.90% # Class of committed instruction (Count)
system.cpu.commit.committedInstType_0::SimdFloatMultAcc            0      0.00%     57.90% # Class of committed instruction (Count)
system.cpu.commit.committedInstType_0::SimdFloatSqrt            0      0.00%     57.90% # Class of committed instruction (Count)
system.cpu.commit.committedInstType_0::SimdReduceAdd            0      0.00%     57.90% # Class of committed instruction (Count)
system.cpu.commit.committedInstType_0::SimdReduceAlu            0      0.00%     57.90% # Class of committed instruction (Count)
system.cpu.commit.committedInstType_0::SimdReduceCmp            0      0.00%     57.90% # Class of committed instruction (Count)
system.cpu.commit.committedInstType_0::SimdFloatReduceAdd            0      0.00%     57.90% # Class of committed instruction (Count)
system.cpu.commit.committedInstType_0::SimdFloatReduceCmp            0      0.00%     57.90% # Class of committed instruction (Count)
system.cpu.commit.committedInstType_0::SimdAes            0      0.00%     57.90% # Class of committed instruction (Count)
system.cpu.commit.committedInstType_0::SimdAesMix            0      0.00%     57.90% # Class of committed instruction (Count)
system.cpu.commit.committedInstType_0::SimdSha1Hash            0      0.00%     57.90% # Class of committed instruction (Count)
system.cpu.commit.committedInstType_0::SimdSha1Hash2            0      0.00%     57.90% # Class of committed instruction (Count)
system.cpu.commit.committedInstType_0::SimdSha256Hash            0      0.00%     57.90% # Class of committed instruction (Count)
system.cpu.commit.committedInstType_0::SimdSha256Hash2            0      0.00%     57.90% # Class of committed instruction (Count)
system.cpu.commit.committedInstType_0::SimdShaSigma2            0      0.00%     57.90% # Class of committed instruction (Count)
system.cpu.commit.committedInstType_0::SimdShaSigma3            0      0.00%     57.90% # Class of committed instruction (Count)
system.cpu.commit.committedInstType_0::SimdPredAlu            0      0.00%     57.90% # Class of committed instruction (Count)
system.cpu.commit.committedInstType_0::MemRead     77696660     42.02%     99.91% # Class of committed instruction (Count)
system.cpu.commit.committedInstType_0::MemWrite       163197      0.09%    100.00% # Class of committed instruction (Count)
system.cpu.commit.committedInstType_0::FloatMemRead            0      0.00%    100.00% # Class of committed instruction (Count)
system.cpu.commit.committedInstType_0::FloatMemWrite            0      0.00%    100.00% # Class of committed instruction (Count)
system.cpu.commit.committedInstType_0::IprAccess            0      0.00%    100.00% # Class of committed instruction (Count)
system.cpu.commit.committedInstType_0::InstPrefetch            0      0.00%    100.00% # Class of committed instruction (Count)
system.cpu.commit.committedInstType_0::total    184919159                       # Class of committed instruction (Count)
system.cpu.commit.commitEligibleSamples       1629994                       # number cycles where commit BW limit reached (Cycle)
system.cpu.dcache.demandHits::cpu.data       41524351                       # number of demand (read+write) hits (Count)
system.cpu.dcache.demandHits::total          41524351                       # number of demand (read+write) hits (Count)
system.cpu.dcache.demandHitsPerPC::401050      1277525                       # number of demand (read+write) hits (Count)
system.cpu.dcache.demandHitsPerPC::401088      2049732                       # number of demand (read+write) hits (Count)
system.cpu.dcache.demandHitsPerPC::401058      1571053                       # number of demand (read+write) hits (Count)
system.cpu.dcache.demandHitsPerPC::401064      1571268                       # number of demand (read+write) hits (Count)
system.cpu.dcache.demandHitsPerPC::40107c      1704153                       # number of demand (read+write) hits (Count)
system.cpu.dcache.demandHitsPerPC::total      8173731                       # number of demand (read+write) hits (Count)
system.cpu.dcache.demandHitsAtPf::cpu.data      1425660                       # number of demand (read+write) hits (Count)
system.cpu.dcache.demandHitsAtPf::total       1425660                       # number of demand (read+write) hits (Count)
system.cpu.dcache.demandHitsAtPfPerPC::401050       157499                       # number of demand (read+write) hits (Count)
system.cpu.dcache.demandHitsAtPfPerPC::401058      1268160                       # number of demand (read+write) hits (Count)
system.cpu.dcache.demandHitsAtPfPerPC::total      1425659                       # number of demand (read+write) hits (Count)
system.cpu.dcache.demandHitsAtPfAlloc::cpu.data      6339934                       # number of demand (read+write) hits (Count)
system.cpu.dcache.demandHitsAtPfAlloc::total      6339934                       # number of demand (read+write) hits (Count)
system.cpu.dcache.demandHitsAtPfAllocPerPC::401050      1260019                       # number of demand (read+write) hits (Count)
system.cpu.dcache.demandHitsAtPfAllocPerPC::401088      1269981                       # number of demand (read+write) hits (Count)
system.cpu.dcache.demandHitsAtPfAllocPerPC::401058      1269976                       # number of demand (read+write) hits (Count)
system.cpu.dcache.demandHitsAtPfAllocPerPC::401064      1269976                       # number of demand (read+write) hits (Count)
system.cpu.dcache.demandHitsAtPfAllocPerPC::40107c      1269974                       # number of demand (read+write) hits (Count)
system.cpu.dcache.demandHitsAtPfAllocPerPC::total      6339926                       # number of demand (read+write) hits (Count)
system.cpu.dcache.hitsAtPfCoverAccess::8     0.016433                       # hits at prefetch / demand accesses (Count)
system.cpu.dcache.hitsAtPfCoverAccess::total     0.016433                       # hits at prefetch / demand accesses (Count)
system.cpu.dcache.hitsAtPfCoverAccessPerPC::401050     0.123043                       # hits at prefetch / demand accesses (Count)
system.cpu.dcache.hitsAtPfCoverAccessPerPC::401058     0.099067                       # hits at prefetch / demand accesses (Count)
system.cpu.dcache.hitsAtPfCoverAccessPerPC::total     0.026963                       # hits at prefetch / demand accesses (Count)
system.cpu.dcache.hitsAtPfAllocCoverAccess::8     0.073077                       # hits at prefetch alloc / demand accesses (Count)
system.cpu.dcache.hitsAtPfAllocCoverAccess::total     0.073077                       # hits at prefetch alloc / demand accesses (Count)
system.cpu.dcache.hitsAtPfAllocCoverAccessPerPC::401050     0.984368                       # hits at prefetch alloc / demand accesses (Count)
system.cpu.dcache.hitsAtPfAllocCoverAccessPerPC::401088     0.094551                       # hits at prefetch alloc / demand accesses (Count)
system.cpu.dcache.hitsAtPfAllocCoverAccessPerPC::401058     0.099209                       # hits at prefetch alloc / demand accesses (Count)
system.cpu.dcache.hitsAtPfAllocCoverAccessPerPC::401064     0.099209                       # hits at prefetch alloc / demand accesses (Count)
system.cpu.dcache.hitsAtPfAllocCoverAccessPerPC::40107c     0.101111                       # hits at prefetch alloc / demand accesses (Count)
system.cpu.dcache.hitsAtPfAllocCoverAccessPerPC::total     0.119906                       # hits at prefetch alloc / demand accesses (Count)
system.cpu.dcache.hitsPfRatio::8             4.447017                       # hits at prefetch alloc / hits at prefetch (Count)
system.cpu.dcache.hitsPfRatio::total         4.447017                       # hits at prefetch alloc / hits at prefetch (Count)
system.cpu.dcache.hitsPfRatioPerPC::401050     8.000171                       # hits at prefetch alloc / hits at prefetch (Count)
system.cpu.dcache.hitsPfRatioPerPC::401088          inf                       # hits at prefetch alloc / hits at prefetch (Count)
system.cpu.dcache.hitsPfRatioPerPC::401058     1.001432                       # hits at prefetch alloc / hits at prefetch (Count)
system.cpu.dcache.hitsPfRatioPerPC::401064          inf                       # hits at prefetch alloc / hits at prefetch (Count)
system.cpu.dcache.hitsPfRatioPerPC::40107c          inf                       # hits at prefetch alloc / hits at prefetch (Count)
system.cpu.dcache.hitsPfRatioPerPC::total     4.447014                       # hits at prefetch alloc / hits at prefetch (Count)
system.cpu.dcache.overallHits::cpu.data      41525129                       # number of overall hits (Count)
system.cpu.dcache.overallHits::total         41525129                       # number of overall hits (Count)
system.cpu.dcache.demandMisses::cpu.data     45232367                       # number of demand (read+write) misses (Count)
system.cpu.dcache.demandMisses::total        45232367                       # number of demand (read+write) misses (Count)
system.cpu.dcache.demandMissesPerPC::401050         2503                       # number of demand (read+write) misses (Count)
system.cpu.dcache.demandMissesPerPC::401088     11382002                       # number of demand (read+write) misses (Count)
system.cpu.dcache.demandMissesPerPC::401058     11230015                       # number of demand (read+write) misses (Count)
system.cpu.dcache.demandMissesPerPC::401064     11229798                       # number of demand (read+write) misses (Count)
system.cpu.dcache.demandMissesPerPC::40107c     10855999                       # number of demand (read+write) misses (Count)
system.cpu.dcache.demandMissesPerPC::total     44700317                       # number of demand (read+write) misses (Count)
system.cpu.dcache.overallMisses::cpu.data     45233499                       # number of overall misses (Count)
system.cpu.dcache.overallMisses::total       45233499                       # number of overall misses (Count)
system.cpu.dcache.demandMissLatency::cpu.data 2774622228052                       # number of demand (read+write) miss ticks (Tick)
system.cpu.dcache.demandMissLatency::total 2774622228052                       # number of demand (read+write) miss ticks (Tick)
system.cpu.dcache.overallMissLatency::cpu.data 2774622228052                       # number of overall miss ticks (Tick)
system.cpu.dcache.overallMissLatency::total 2774622228052                       # number of overall miss ticks (Tick)
system.cpu.dcache.demandAccesses::cpu.data     86756718                       # number of demand (read+write) accesses (Count)
system.cpu.dcache.demandAccesses::total      86756718                       # number of demand (read+write) accesses (Count)
system.cpu.dcache.demandAccessesPerPC::401050      1280028                       # number of demand (read+write) accesses (Count)
system.cpu.dcache.demandAccessesPerPC::401088     13431734                       # number of demand (read+write) accesses (Count)
system.cpu.dcache.demandAccessesPerPC::401058     12801068                       # number of demand (read+write) accesses (Count)
system.cpu.dcache.demandAccessesPerPC::401064     12801066                       # number of demand (read+write) accesses (Count)
system.cpu.dcache.demandAccessesPerPC::40107c     12560152                       # number of demand (read+write) accesses (Count)
system.cpu.dcache.demandAccessesPerPC::total     52874048                       # number of demand (read+write) accesses (Count)
system.cpu.dcache.overallAccesses::cpu.data     86758628                       # number of overall (read+write) accesses (Count)
system.cpu.dcache.overallAccesses::total     86758628                       # number of overall (read+write) accesses (Count)
system.cpu.dcache.demandMissRate::cpu.data     0.521370                       # miss rate for demand accesses (Ratio)
system.cpu.dcache.demandMissRate::total      0.521370                       # miss rate for demand accesses (Ratio)
system.cpu.dcache.demandMissRatePerPC::401050     0.001955                       # miss rate for demand accesses (Ratio)
system.cpu.dcache.demandMissRatePerPC::401088     0.847396                       # miss rate for demand accesses (Ratio)
system.cpu.dcache.demandMissRatePerPC::401058     0.877272                       # miss rate for demand accesses (Ratio)
system.cpu.dcache.demandMissRatePerPC::401064     0.877255                       # miss rate for demand accesses (Ratio)
system.cpu.dcache.demandMissRatePerPC::40107c     0.864321                       # miss rate for demand accesses (Ratio)
system.cpu.dcache.overallMissRate::cpu.data     0.521372                       # miss rate for overall accesses (Ratio)
system.cpu.dcache.overallMissRate::total     0.521372                       # miss rate for overall accesses (Ratio)
system.cpu.dcache.demandAvgMissLatency::cpu.data 61341.521837                       # average overall miss latency in ticks ((Tick/Count))
system.cpu.dcache.demandAvgMissLatency::total 61341.521837                       # average overall miss latency in ticks ((Tick/Count))
system.cpu.dcache.overallAvgMissLatency::cpu.data 61339.986722                       # average overall miss latency ((Tick/Count))
system.cpu.dcache.overallAvgMissLatency::total 61339.986722                       # average overall miss latency ((Tick/Count))
system.cpu.dcache.blockedCycles::no_mshrs            0                       # number of cycles access was blocked (Cycle)
system.cpu.dcache.blockedCycles::no_targets        88753                       # number of cycles access was blocked (Cycle)
system.cpu.dcache.blockedCauses::no_mshrs            0                       # number of times access was blocked (Count)
system.cpu.dcache.blockedCauses::no_targets         1497                       # number of times access was blocked (Count)
system.cpu.dcache.avgBlocked::no_mshrs            nan                       # average number of cycles each access was blocked ((Cycle/Count))
system.cpu.dcache.avgBlocked::no_targets    59.287241                       # average number of cycles each access was blocked ((Cycle/Count))
system.cpu.dcache.writebacks::writebacks     15721559                       # number of writebacks (Count)
system.cpu.dcache.writebacks::total          15721559                       # number of writebacks (Count)
system.cpu.dcache.demandMshrHits::cpu.data     30937840                       # number of demand (read+write) MSHR hits (Count)
system.cpu.dcache.demandMshrHits::total      30937840                       # number of demand (read+write) MSHR hits (Count)
system.cpu.dcache.demandMshrHitsPerPC::401050            1                       # number of demand (read+write) MSHR hits (Count)
system.cpu.dcache.demandMshrHitsPerPC::401088     11251382                       # number of demand (read+write) MSHR hits (Count)
system.cpu.dcache.demandMshrHitsPerPC::401058          773                       # number of demand (read+write) MSHR hits (Count)
system.cpu.dcache.demandMshrHitsPerPC::401064     11229798                       # number of demand (read+write) MSHR hits (Count)
system.cpu.dcache.demandMshrHitsPerPC::40107c      8110129                       # number of demand (read+write) MSHR hits (Count)
system.cpu.dcache.demandMshrHitsPerPC::total     30592083                       # number of demand (read+write) MSHR hits (Count)
system.cpu.dcache.overallMshrHits::cpu.data     30937840                       # number of overall MSHR hits (Count)
system.cpu.dcache.overallMshrHits::total     30937840                       # number of overall MSHR hits (Count)
system.cpu.dcache.demandMshrHitsAtPf::cpu.data            7                       # number of demand (read+write) MSHR hits (Count)
system.cpu.dcache.demandMshrHitsAtPf::total            7                       # number of demand (read+write) MSHR hits (Count)
system.cpu.dcache.demandMshrMisses::cpu.data     14294527                       # number of demand (read+write) MSHR misses (Count)
system.cpu.dcache.demandMshrMisses::total     14294527                       # number of demand (read+write) MSHR misses (Count)
system.cpu.dcache.demandMshrMissesPerPC::401050         2502                       # number of demand (read+write) MSHR misses (Count)
system.cpu.dcache.demandMshrMissesPerPC::401088       130620                       # number of demand (read+write) MSHR misses (Count)
system.cpu.dcache.demandMshrMissesPerPC::401058     11229242                       # number of demand (read+write) MSHR misses (Count)
system.cpu.dcache.demandMshrMissesPerPC::40107c      2745870                       # number of demand (read+write) MSHR misses (Count)
system.cpu.dcache.demandMshrMissesPerPC::total     14108234                       # number of demand (read+write) MSHR misses (Count)
system.cpu.dcache.overallMshrMisses::cpu.data     14295657                       # number of overall MSHR misses (Count)
system.cpu.dcache.overallMshrMisses::cpu.dcache.prefetcher      1425898                       # number of overall MSHR misses (Count)
system.cpu.dcache.overallMshrMisses::total     15721555                       # number of overall MSHR misses (Count)
system.cpu.dcache.overallMshrUncacheable::cpu.data          750                       # number of overall MSHR uncacheable misses (Count)
system.cpu.dcache.overallMshrUncacheable::total          750                       # number of overall MSHR uncacheable misses (Count)
system.cpu.dcache.demandMshrMissLatency::cpu.data 858311259252                       # number of demand (read+write) MSHR miss ticks (Tick)
system.cpu.dcache.demandMshrMissLatency::total 858311259252                       # number of demand (read+write) MSHR miss ticks (Tick)
system.cpu.dcache.overallMshrMissLatency::cpu.data 858378760852                       # number of overall MSHR miss ticks (Tick)
system.cpu.dcache.overallMshrMissLatency::cpu.dcache.prefetcher  84138702224                       # number of overall MSHR miss ticks (Tick)
system.cpu.dcache.overallMshrMissLatency::total 942517463076                       # number of overall MSHR miss ticks (Tick)
system.cpu.dcache.overallMshrUncacheableLatency::cpu.data     59958400                       # number of overall MSHR uncacheable ticks (Tick)
system.cpu.dcache.overallMshrUncacheableLatency::total     59958400                       # number of overall MSHR uncacheable ticks (Tick)
system.cpu.dcache.demandMshrMissRate::cpu.data     0.164766                       # mshr miss ratio for demand accesses (Ratio)
system.cpu.dcache.demandMshrMissRate::total     0.164766                       # mshr miss ratio for demand accesses (Ratio)
system.cpu.dcache.overallMshrMissRate::cpu.data     0.164775                       # mshr miss ratio for overall accesses (Ratio)
system.cpu.dcache.overallMshrMissRate::cpu.dcache.prefetcher          inf                       # mshr miss ratio for overall accesses (Ratio)
system.cpu.dcache.overallMshrMissRate::total     0.181210                       # mshr miss ratio for overall accesses (Ratio)
system.cpu.dcache.demandAvgMshrMissLatency::cpu.data 60044.747144                       # average overall mshr miss latency ((Tick/Count))
system.cpu.dcache.demandAvgMshrMissLatency::total 60044.747144                       # average overall mshr miss latency ((Tick/Count))
system.cpu.dcache.overallAvgMshrMissLatency::cpu.data 60044.722733                       # average overall mshr miss latency ((Tick/Count))
system.cpu.dcache.overallAvgMshrMissLatency::cpu.dcache.prefetcher 59007.518226                       # average overall mshr miss latency ((Tick/Count))
system.cpu.dcache.overallAvgMshrMissLatency::total 59950.651388                       # average overall mshr miss latency ((Tick/Count))
system.cpu.dcache.overallAvgMshrUncacheableLatency::cpu.data 79944.533333                       # average overall mshr uncacheable latency ((Tick/Count))
system.cpu.dcache.overallAvgMshrUncacheableLatency::total 79944.533333                       # average overall mshr uncacheable latency ((Tick/Count))
system.cpu.dcache.replacements               15721559                       # number of replacements (Count)
system.cpu.dcache.prefetchFills               1425889                       # number of prefetch fills (Count)
system.cpu.dcache.prefetchHits                1425661                       # number of prefetch hits (Count)
system.cpu.dcache.HardPFReq.mshrMisses::cpu.dcache.prefetcher      1425898                       # number of HardPFReq MSHR misses (Count)
system.cpu.dcache.HardPFReq.mshrMisses::total      1425898                       # number of HardPFReq MSHR misses (Count)
system.cpu.dcache.HardPFReq.mshrMissLatency::cpu.dcache.prefetcher  84138702224                       # number of HardPFReq MSHR miss ticks (Tick)
system.cpu.dcache.HardPFReq.mshrMissLatency::total  84138702224                       # number of HardPFReq MSHR miss ticks (Tick)
system.cpu.dcache.HardPFReq.mshrMissRate::cpu.dcache.prefetcher          inf                       # mshr miss rate for HardPFReq accesses (Ratio)
system.cpu.dcache.HardPFReq.mshrMissRate::total          inf                       # mshr miss rate for HardPFReq accesses (Ratio)
system.cpu.dcache.HardPFReq.avgMshrMissLatency::cpu.dcache.prefetcher 59007.518226                       # average HardPFReq mshr miss latency ((Tick/Count))
system.cpu.dcache.HardPFReq.avgMshrMissLatency::total 59007.518226                       # average HardPFReq mshr miss latency ((Tick/Count))
system.cpu.dcache.LoadLockedReq.hits::cpu.data          827                       # number of LoadLockedReq hits (Count)
system.cpu.dcache.LoadLockedReq.hits::total          827                       # number of LoadLockedReq hits (Count)
system.cpu.dcache.LoadLockedReq.hitsAtPf::cpu.data            1                       # number of LoadLockedReq hits (Count)
system.cpu.dcache.LoadLockedReq.hitsAtPf::total            1                       # number of LoadLockedReq hits (Count)
system.cpu.dcache.LoadLockedReq.hitsAtPfAlloc::cpu.data           12                       # number of LoadLockedReq hits (Count)
system.cpu.dcache.LoadLockedReq.hitsAtPfAlloc::total           12                       # number of LoadLockedReq hits (Count)
system.cpu.dcache.LoadLockedReq.misses::cpu.data          947                       # number of LoadLockedReq misses (Count)
system.cpu.dcache.LoadLockedReq.misses::total          947                       # number of LoadLockedReq misses (Count)
system.cpu.dcache.LoadLockedReq.missLatency::cpu.data     57593600                       # number of LoadLockedReq miss ticks (Tick)
system.cpu.dcache.LoadLockedReq.missLatency::total     57593600                       # number of LoadLockedReq miss ticks (Tick)
system.cpu.dcache.LoadLockedReq.accesses::cpu.data         1774                       # number of LoadLockedReq accesses(hits+misses) (Count)
system.cpu.dcache.LoadLockedReq.accesses::total         1774                       # number of LoadLockedReq accesses(hits+misses) (Count)
system.cpu.dcache.LoadLockedReq.missRate::cpu.data     0.533822                       # miss rate for LoadLockedReq accesses (Ratio)
system.cpu.dcache.LoadLockedReq.missRate::total     0.533822                       # miss rate for LoadLockedReq accesses (Ratio)
system.cpu.dcache.LoadLockedReq.avgMissLatency::cpu.data 60816.895459                       # average LoadLockedReq miss latency ((Tick/Count))
system.cpu.dcache.LoadLockedReq.avgMissLatency::total 60816.895459                       # average LoadLockedReq miss latency ((Tick/Count))
system.cpu.dcache.LoadLockedReq.mshrHits::cpu.data          945                       # number of LoadLockedReq MSHR hits (Count)
system.cpu.dcache.LoadLockedReq.mshrHits::total          945                       # number of LoadLockedReq MSHR hits (Count)
system.cpu.dcache.LoadLockedReq.mshrHitsAtPf::8            2                       # number of LoadLockedReq MSHR hits at pfMSHR (Count)
system.cpu.dcache.LoadLockedReq.mshrHitsAtPf::total            2                       # number of LoadLockedReq MSHR hits at pfMSHR (Count)
system.cpu.dcache.LoadLockedReq.mshrMisses::cpu.data            2                       # number of LoadLockedReq MSHR misses (Count)
system.cpu.dcache.LoadLockedReq.mshrMisses::total            2                       # number of LoadLockedReq MSHR misses (Count)
system.cpu.dcache.LoadLockedReq.mshrMissLatency::cpu.data       119600                       # number of LoadLockedReq MSHR miss ticks (Tick)
system.cpu.dcache.LoadLockedReq.mshrMissLatency::total       119600                       # number of LoadLockedReq MSHR miss ticks (Tick)
system.cpu.dcache.LoadLockedReq.mshrMissRate::cpu.data     0.001127                       # mshr miss rate for LoadLockedReq accesses (Ratio)
system.cpu.dcache.LoadLockedReq.mshrMissRate::total     0.001127                       # mshr miss rate for LoadLockedReq accesses (Ratio)
system.cpu.dcache.LoadLockedReq.avgMshrMissLatency::cpu.data        59800                       # average LoadLockedReq mshr miss latency ((Tick/Count))
system.cpu.dcache.LoadLockedReq.avgMshrMissLatency::total        59800                       # average LoadLockedReq mshr miss latency ((Tick/Count))
system.cpu.dcache.ReadReq.hits::cpu.data     41384385                       # number of ReadReq hits (Count)
system.cpu.dcache.ReadReq.hits::total        41384385                       # number of ReadReq hits (Count)
system.cpu.dcache.ReadReq.hitsPerPC::401050      1277525                       # number of ReadReq hits (Count)
system.cpu.dcache.ReadReq.hitsPerPC::401088      2049732                       # number of ReadReq hits (Count)
system.cpu.dcache.ReadReq.hitsPerPC::401058      1571053                       # number of ReadReq hits (Count)
system.cpu.dcache.ReadReq.hitsPerPC::401064      1571268                       # number of ReadReq hits (Count)
system.cpu.dcache.ReadReq.hitsPerPC::40107c      1704153                       # number of ReadReq hits (Count)
system.cpu.dcache.ReadReq.hitsAtPf::cpu.data      1425659                       # number of ReadReq hits (Count)
system.cpu.dcache.ReadReq.hitsAtPf::total      1425659                       # number of ReadReq hits (Count)
system.cpu.dcache.ReadReq.hitsAtPfPerPC::401050       157499                       # number of ReadReq hits (Count)
system.cpu.dcache.ReadReq.hitsAtPfPerPC::401058      1268160                       # number of ReadReq hits (Count)
system.cpu.dcache.ReadReq.hitsAtPfAlloc::cpu.data      6339926                       # number of ReadReq hits (Count)
system.cpu.dcache.ReadReq.hitsAtPfAlloc::total      6339926                       # number of ReadReq hits (Count)
system.cpu.dcache.ReadReq.hitsAtPfAllocPerPC::401050      1260019                       # number of ReadReq hits (Count)
system.cpu.dcache.ReadReq.hitsAtPfAllocPerPC::401088      1269981                       # number of ReadReq hits (Count)
system.cpu.dcache.ReadReq.hitsAtPfAllocPerPC::401058      1269976                       # number of ReadReq hits (Count)
system.cpu.dcache.ReadReq.hitsAtPfAllocPerPC::401064      1269976                       # number of ReadReq hits (Count)
system.cpu.dcache.ReadReq.hitsAtPfAllocPerPC::40107c      1269974                       # number of ReadReq hits (Count)
system.cpu.dcache.ReadReq.misses::cpu.data     45210717                       # number of ReadReq misses (Count)
system.cpu.dcache.ReadReq.misses::total      45210717                       # number of ReadReq misses (Count)
system.cpu.dcache.ReadReq.missesPerPC::401050         2503                       # number of ReadReq misses (Count)
system.cpu.dcache.ReadReq.missesPerPC::401088     11382002                       # number of ReadReq misses (Count)
system.cpu.dcache.ReadReq.missesPerPC::401058     11230015                       # number of ReadReq misses (Count)
system.cpu.dcache.ReadReq.missesPerPC::401064     11229798                       # number of ReadReq misses (Count)
system.cpu.dcache.ReadReq.missesPerPC::40107c     10855999                       # number of ReadReq misses (Count)
system.cpu.dcache.ReadReq.missLatency::cpu.data 2773465219600                       # number of ReadReq miss ticks (Tick)
system.cpu.dcache.ReadReq.missLatency::total 2773465219600                       # number of ReadReq miss ticks (Tick)
system.cpu.dcache.ReadReq.accesses::cpu.data     86595102                       # number of ReadReq accesses(hits+misses) (Count)
system.cpu.dcache.ReadReq.accesses::total     86595102                       # number of ReadReq accesses(hits+misses) (Count)
system.cpu.dcache.ReadReq.accessesPerPC::401050      1280028                       # number of ReadReq accesses(hits+misses) (Count)
system.cpu.dcache.ReadReq.accessesPerPC::401088     13431734                       # number of ReadReq accesses(hits+misses) (Count)
system.cpu.dcache.ReadReq.accessesPerPC::401058     12801068                       # number of ReadReq accesses(hits+misses) (Count)
system.cpu.dcache.ReadReq.accessesPerPC::401064     12801066                       # number of ReadReq accesses(hits+misses) (Count)
system.cpu.dcache.ReadReq.accessesPerPC::40107c     12560152                       # number of ReadReq accesses(hits+misses) (Count)
system.cpu.dcache.ReadReq.missRate::cpu.data     0.522093                       # miss rate for ReadReq accesses (Ratio)
system.cpu.dcache.ReadReq.missRate::total     0.522093                       # miss rate for ReadReq accesses (Ratio)
system.cpu.dcache.ReadReq.avgMissLatency::cpu.data 61345.304911                       # average ReadReq miss latency ((Tick/Count))
system.cpu.dcache.ReadReq.avgMissLatency::total 61345.304911                       # average ReadReq miss latency ((Tick/Count))
system.cpu.dcache.ReadReq.mshrHits::cpu.data     30920895                       # number of ReadReq MSHR hits (Count)
system.cpu.dcache.ReadReq.mshrHits::total     30920895                       # number of ReadReq MSHR hits (Count)
system.cpu.dcache.ReadReq.mshrHitsPerPC::401050            1                       # number of ReadReq MSHR hits (Count)
system.cpu.dcache.ReadReq.mshrHitsPerPC::401088     11251382                       # number of ReadReq MSHR hits (Count)
system.cpu.dcache.ReadReq.mshrHitsPerPC::401058          773                       # number of ReadReq MSHR hits (Count)
system.cpu.dcache.ReadReq.mshrHitsPerPC::401064     11229798                       # number of ReadReq MSHR hits (Count)
system.cpu.dcache.ReadReq.mshrHitsPerPC::40107c      8110129                       # number of ReadReq MSHR hits (Count)
system.cpu.dcache.ReadReq.mshrMisses::cpu.data     14289822                       # number of ReadReq MSHR misses (Count)
system.cpu.dcache.ReadReq.mshrMisses::total     14289822                       # number of ReadReq MSHR misses (Count)
system.cpu.dcache.ReadReq.mshrMissesPerPC::401050         2502                       # number of ReadReq MSHR misses (Count)
system.cpu.dcache.ReadReq.mshrMissesPerPC::401088       130620                       # number of ReadReq MSHR misses (Count)
system.cpu.dcache.ReadReq.mshrMissesPerPC::401058     11229242                       # number of ReadReq MSHR misses (Count)
system.cpu.dcache.ReadReq.mshrMissesPerPC::40107c      2745870                       # number of ReadReq MSHR misses (Count)
system.cpu.dcache.ReadReq.mshrUncacheable::cpu.data          563                       # number of ReadReq MSHR uncacheable (Count)
system.cpu.dcache.ReadReq.mshrUncacheable::total          563                       # number of ReadReq MSHR uncacheable (Count)
system.cpu.dcache.ReadReq.mshrMissLatency::cpu.data 858033944400                       # number of ReadReq MSHR miss ticks (Tick)
system.cpu.dcache.ReadReq.mshrMissLatency::total 858033944400                       # number of ReadReq MSHR miss ticks (Tick)
system.cpu.dcache.ReadReq.mshrUncacheableLatency::cpu.data     59958400                       # number of ReadReq MSHR uncacheable ticks (Tick)
system.cpu.dcache.ReadReq.mshrUncacheableLatency::total     59958400                       # number of ReadReq MSHR uncacheable ticks (Tick)
system.cpu.dcache.ReadReq.mshrMissRate::cpu.data     0.165019                       # mshr miss rate for ReadReq accesses (Ratio)
system.cpu.dcache.ReadReq.mshrMissRate::total     0.165019                       # mshr miss rate for ReadReq accesses (Ratio)
system.cpu.dcache.ReadReq.avgMshrMissLatency::cpu.data 60045.110737                       # average ReadReq mshr miss latency ((Tick/Count))
system.cpu.dcache.ReadReq.avgMshrMissLatency::total 60045.110737                       # average ReadReq mshr miss latency ((Tick/Count))
system.cpu.dcache.ReadReq.avgMshrUncacheableLatency::cpu.data 106498.046181                       # average ReadReq mshr uncacheable latency ((Tick/Count))
system.cpu.dcache.ReadReq.avgMshrUncacheableLatency::total 106498.046181                       # average ReadReq mshr uncacheable latency ((Tick/Count))
system.cpu.dcache.SoftPFExReq.hits::cpu.data          778                       # number of SoftPFExReq hits (Count)
system.cpu.dcache.SoftPFExReq.hits::total          778                       # number of SoftPFExReq hits (Count)
system.cpu.dcache.SoftPFExReq.misses::cpu.data          945                       # number of SoftPFExReq misses (Count)
system.cpu.dcache.SoftPFExReq.misses::total          945                       # number of SoftPFExReq misses (Count)
system.cpu.dcache.SoftPFExReq.accesses::cpu.data         1723                       # number of SoftPFExReq accesses(hits+misses) (Count)
system.cpu.dcache.SoftPFExReq.accesses::total         1723                       # number of SoftPFExReq accesses(hits+misses) (Count)
system.cpu.dcache.SoftPFExReq.missRate::cpu.data     0.548462                       # miss rate for SoftPFExReq accesses (Ratio)
system.cpu.dcache.SoftPFExReq.missRate::total     0.548462                       # miss rate for SoftPFExReq accesses (Ratio)
system.cpu.dcache.SoftPFExReq.mshrMisses::cpu.data          943                       # number of SoftPFExReq MSHR misses (Count)
system.cpu.dcache.SoftPFExReq.mshrMisses::total          943                       # number of SoftPFExReq MSHR misses (Count)
system.cpu.dcache.SoftPFExReq.mshrMissLatency::cpu.data     56302000                       # number of SoftPFExReq MSHR miss ticks (Tick)
system.cpu.dcache.SoftPFExReq.mshrMissLatency::total     56302000                       # number of SoftPFExReq MSHR miss ticks (Tick)
system.cpu.dcache.SoftPFExReq.mshrMissRate::cpu.data     0.547301                       # mshr miss rate for SoftPFExReq accesses (Ratio)
system.cpu.dcache.SoftPFExReq.mshrMissRate::total     0.547301                       # mshr miss rate for SoftPFExReq accesses (Ratio)
system.cpu.dcache.SoftPFExReq.avgMshrMissLatency::cpu.data 59705.196182                       # average SoftPFExReq mshr miss latency ((Tick/Count))
system.cpu.dcache.SoftPFExReq.avgMshrMissLatency::total 59705.196182                       # average SoftPFExReq mshr miss latency ((Tick/Count))
system.cpu.dcache.SoftPFReq.misses::cpu.data          187                       # number of SoftPFReq misses (Count)
system.cpu.dcache.SoftPFReq.misses::total          187                       # number of SoftPFReq misses (Count)
system.cpu.dcache.SoftPFReq.accesses::cpu.data          187                       # number of SoftPFReq accesses(hits+misses) (Count)
system.cpu.dcache.SoftPFReq.accesses::total          187                       # number of SoftPFReq accesses(hits+misses) (Count)
system.cpu.dcache.SoftPFReq.missRate::cpu.data            1                       # miss rate for SoftPFReq accesses (Ratio)
system.cpu.dcache.SoftPFReq.missRate::total            1                       # miss rate for SoftPFReq accesses (Ratio)
system.cpu.dcache.SoftPFReq.mshrMisses::cpu.data          187                       # number of SoftPFReq MSHR misses (Count)
system.cpu.dcache.SoftPFReq.mshrMisses::total          187                       # number of SoftPFReq MSHR misses (Count)
system.cpu.dcache.SoftPFReq.mshrMissLatency::cpu.data     11199600                       # number of SoftPFReq MSHR miss ticks (Tick)
system.cpu.dcache.SoftPFReq.mshrMissLatency::total     11199600                       # number of SoftPFReq MSHR miss ticks (Tick)
system.cpu.dcache.SoftPFReq.mshrMissRate::cpu.data            1                       # mshr miss rate for SoftPFReq accesses (Ratio)
system.cpu.dcache.SoftPFReq.mshrMissRate::total            1                       # mshr miss rate for SoftPFReq accesses (Ratio)
system.cpu.dcache.SoftPFReq.avgMshrMissLatency::cpu.data 59890.909091                       # average SoftPFReq mshr miss latency ((Tick/Count))
system.cpu.dcache.SoftPFReq.avgMshrMissLatency::total 59890.909091                       # average SoftPFReq mshr miss latency ((Tick/Count))
system.cpu.dcache.StoreCondReq.hits::cpu.data         1394                       # number of StoreCondReq hits (Count)
system.cpu.dcache.StoreCondReq.hits::total         1394                       # number of StoreCondReq hits (Count)
system.cpu.dcache.StoreCondReq.hitsAtPfAlloc::cpu.data           12                       # number of StoreCondReq hits (Count)
system.cpu.dcache.StoreCondReq.hitsAtPfAlloc::total           12                       # number of StoreCondReq hits (Count)
system.cpu.dcache.StoreCondReq.accesses::cpu.data         1394                       # number of StoreCondReq accesses(hits+misses) (Count)
system.cpu.dcache.StoreCondReq.accesses::total         1394                       # number of StoreCondReq accesses(hits+misses) (Count)
system.cpu.dcache.WriteReq.hits::cpu.data       139966                       # number of WriteReq hits (Count)
system.cpu.dcache.WriteReq.hits::total         139966                       # number of WriteReq hits (Count)
system.cpu.dcache.WriteReq.hitsAtPf::cpu.data            1                       # number of WriteReq hits (Count)
system.cpu.dcache.WriteReq.hitsAtPf::total            1                       # number of WriteReq hits (Count)
system.cpu.dcache.WriteReq.hitsAtPfAlloc::cpu.data            8                       # number of WriteReq hits (Count)
system.cpu.dcache.WriteReq.hitsAtPfAlloc::total            8                       # number of WriteReq hits (Count)
system.cpu.dcache.WriteReq.misses::cpu.data        21650                       # number of WriteReq misses (Count)
system.cpu.dcache.WriteReq.misses::total        21650                       # number of WriteReq misses (Count)
system.cpu.dcache.WriteReq.missLatency::cpu.data   1157008452                       # number of WriteReq miss ticks (Tick)
system.cpu.dcache.WriteReq.missLatency::total   1157008452                       # number of WriteReq miss ticks (Tick)
system.cpu.dcache.WriteReq.accesses::cpu.data       161616                       # number of WriteReq accesses(hits+misses) (Count)
system.cpu.dcache.WriteReq.accesses::total       161616                       # number of WriteReq accesses(hits+misses) (Count)
system.cpu.dcache.WriteReq.missRate::cpu.data     0.133960                       # miss rate for WriteReq accesses (Ratio)
system.cpu.dcache.WriteReq.missRate::total     0.133960                       # miss rate for WriteReq accesses (Ratio)
system.cpu.dcache.WriteReq.avgMissLatency::cpu.data 53441.498938                       # average WriteReq miss latency ((Tick/Count))
system.cpu.dcache.WriteReq.avgMissLatency::total 53441.498938                       # average WriteReq miss latency ((Tick/Count))
system.cpu.dcache.WriteReq.mshrHits::cpu.data        16945                       # number of WriteReq MSHR hits (Count)
system.cpu.dcache.WriteReq.mshrHits::total        16945                       # number of WriteReq MSHR hits (Count)
system.cpu.dcache.WriteReq.mshrHitsAtPf::8            7                       # number of WriteReq MSHR hits at pfMSHR (Count)
system.cpu.dcache.WriteReq.mshrHitsAtPf::total            7                       # number of WriteReq MSHR hits at pfMSHR (Count)
system.cpu.dcache.WriteReq.mshrMisses::cpu.data         4705                       # number of WriteReq MSHR misses (Count)
system.cpu.dcache.WriteReq.mshrMisses::total         4705                       # number of WriteReq MSHR misses (Count)
system.cpu.dcache.WriteReq.mshrUncacheable::cpu.data          187                       # number of WriteReq MSHR uncacheable (Count)
system.cpu.dcache.WriteReq.mshrUncacheable::total          187                       # number of WriteReq MSHR uncacheable (Count)
system.cpu.dcache.WriteReq.mshrMissLatency::cpu.data    277314852                       # number of WriteReq MSHR miss ticks (Tick)
system.cpu.dcache.WriteReq.mshrMissLatency::total    277314852                       # number of WriteReq MSHR miss ticks (Tick)
system.cpu.dcache.WriteReq.mshrMissRate::cpu.data     0.029112                       # mshr miss rate for WriteReq accesses (Ratio)
system.cpu.dcache.WriteReq.mshrMissRate::total     0.029112                       # mshr miss rate for WriteReq accesses (Ratio)
system.cpu.dcache.WriteReq.avgMshrMissLatency::cpu.data 58940.457386                       # average WriteReq mshr miss latency ((Tick/Count))
system.cpu.dcache.WriteReq.avgMshrMissLatency::total 58940.457386                       # average WriteReq mshr miss latency ((Tick/Count))
system.cpu.dcache.power_state.pwrStateResidencyTicks::UNDEFINED 2063491614800                       # Cumulative time (in ticks) in various power states (Tick)
system.cpu.dcache.prefetcher.demandMshrMisses     14294527                       # demands not covered by prefetchs (Count)
system.cpu.dcache.prefetcher.demandMshrMissesPerPC::401050         2502                       # demands not covered by prefetchs (Count)
system.cpu.dcache.prefetcher.demandMshrMissesPerPC::401088       130620                       # demands not covered by prefetchs (Count)
system.cpu.dcache.prefetcher.demandMshrMissesPerPC::401058     11229242                       # demands not covered by prefetchs (Count)
system.cpu.dcache.prefetcher.demandMshrMissesPerPC::40107c      2745870                       # demands not covered by prefetchs (Count)
system.cpu.dcache.prefetcher.demandMshrMissesPerPC::total     14108234                       # demands not covered by prefetchs (Count)
system.cpu.dcache.prefetcher.demandMshrHitsAtPf            7                       # demands hit in mshr allocated by prefetchs (Count)
system.cpu.dcache.prefetcher.pfIssued         3954306                       # number of hwpf issued (Count)
system.cpu.dcache.prefetcher.pfIssuedPerPfPC::401050      1259591                       # number of hwpf issued (Count)
system.cpu.dcache.prefetcher.pfIssuedPerPfPC::401088      2692458                       # number of hwpf issued (Count)
system.cpu.dcache.prefetcher.pfIssuedPerPfPC::total      3952049                       # number of hwpf issued (Count)
system.cpu.dcache.prefetcher.pfUnused             227                       # number of HardPF blocks evicted w/o reference (Count)
system.cpu.dcache.prefetcher.pfUnusedPerPfPC::401050            2                       # number of HardPF blocks evicted w/o reference (Count)
system.cpu.dcache.prefetcher.pfUnusedPerPfPC::401088           30                       # number of HardPF blocks evicted w/o reference (Count)
system.cpu.dcache.prefetcher.pfUnusedPerPfPC::total           32                       # number of HardPF blocks evicted w/o reference (Count)
system.cpu.dcache.prefetcher.pfUseful         1425661                       # number of useful prefetch (Count)
system.cpu.dcache.prefetcher.pfUsefulPerPfPC::401050       157499                       # number of useful prefetch (Count)
system.cpu.dcache.prefetcher.pfUsefulPerPfPC::401088      1268160                       # number of useful prefetch (Count)
system.cpu.dcache.prefetcher.pfUsefulPerPfPC::total      1425659                       # number of useful prefetch (Count)
system.cpu.dcache.prefetcher.pfUsefulButMiss            0                       # number of hit on prefetch but cache block is not in an usable state (Count)
[...]
system.membus.pktCount_system.l2.mem_side_port::system.mem_ctrls.port     47009295                       # Packet count per connected requestor and responder (Count)
system.membus.pktCount_system.l2.mem_side_port::total     47011697                       # Packet count per connected requestor and responder (Count)
system.membus.pktCount::total                47011697                       # Packet count per connected requestor and responder (Count)
system.membus.pktSize_system.l2.mem_side_port::system.bridge.cpu_side_port         1664                       # Cumulative packet size per connected requestor and responder (Byte)
system.membus.pktSize_system.l2.mem_side_port::system.realview.gic.pio         2280                       # Cumulative packet size per connected requestor and responder (Byte)
system.membus.pktSize_system.l2.mem_side_port::system.mem_ctrls.port   1006852032                       # Cumulative packet size per connected requestor and responder (Byte)
system.membus.pktSize_system.l2.mem_side_port::total   1006855976                       # Cumulative packet size per connected requestor and responder (Byte)
system.membus.pktSize::total               1006855976                       # Cumulative packet size per connected requestor and responder (Byte)
system.membus.snoops                                0                       # Total snoops (Count)
system.membus.snoopTraffic                          0                       # Total snoop traffic (Byte)
system.membus.snoopFanout::samples           18855627                       # Request fanout histogram (Count)
system.membus.snoopFanout::mean                     0                       # Request fanout histogram (Count)
system.membus.snoopFanout::stdev                    0                       # Request fanout histogram (Count)
system.membus.snoopFanout::underflows               0      0.00%      0.00% # Request fanout histogram (Count)
system.membus.snoopFanout::0                 18855627    100.00%    100.00% # Request fanout histogram (Count)
system.membus.snoopFanout::1                        0      0.00%    100.00% # Request fanout histogram (Count)
system.membus.snoopFanout::2                        0      0.00%    100.00% # Request fanout histogram (Count)
system.membus.snoopFanout::overflows                0      0.00%    100.00% # Request fanout histogram (Count)
system.membus.snoopFanout::min_value                0                       # Request fanout histogram (Count)
system.membus.snoopFanout::max_value                0                       # Request fanout histogram (Count)
system.membus.snoopFanout::total             18855627                       # Request fanout histogram (Count)
system.membus.badaddr_responder.power_state.pwrStateResidencyTicks::UNDEFINED 2075372508800                       # Cumulative time (in ticks) in various power states (Tick)
system.membus.power_state.pwrStateResidencyTicks::UNDEFINED 2075372508800                       # Cumulative time (in ticks) in various power states (Tick)
system.membus.reqLayer0.occupancy             1051600                       # Layer occupancy (ticks) (Tick)
system.membus.reqLayer0.utilization               0.0                       # Layer utilization (Ratio)
system.membus.reqLayer12.occupancy             918000                       # Layer occupancy (ticks) (Tick)
system.membus.reqLayer12.utilization              0.0                       # Layer utilization (Ratio)
system.membus.reqLayer15.occupancy        47833383146                       # Layer occupancy (ticks) (Tick)
system.membus.reqLayer15.utilization              0.1                       # Layer utilization (Ratio)
system.membus.respLayer2.occupancy        78342658000                       # Layer occupancy (ticks) (Tick)
system.membus.respLayer2.utilization              0.1                       # Layer utilization (Ratio)
system.membus.snoop_filter.totRequests       34526215                       # Total number of requests made to the snoop filter. (Count)
system.membus.snoop_filter.hitSingleRequests     15671987                       # Number of requests hitting in the snoop filter with a single holder of the requested data. (Count)
system.membus.snoop_filter.hitMultiRequests            0                       # Number of requests hitting in the snoop filter with multiple (>1) holders of the requested data. (Count)
system.membus.snoop_filter.totSnoops                0                       # Total number of snoops made to the snoop filter. (Count)
system.membus.snoop_filter.hitSingleSnoops            0                       # Number of snoops hitting in the snoop filter with a single holder of the requested data. (Count)
system.membus.snoop_filter.hitMultiSnoops            0                       # Number of snoops hitting in the snoop filter with multiple (>1) holders of the requested data. (Count)
system.pci_ide.disks.IdeDisk.dmaReadFullPages            0                       # Number of full page size DMA reads (not PRD). (Count)
system.pci_ide.disks.IdeDisk.dmaReadBytes            0                       # Number of bytes transfered via DMA reads (not PRD). (Byte)
system.pci_ide.disks.IdeDisk.dmaReadTxs             0                       # Number of DMA read transactions (not PRD). (Count)
system.pci_ide.disks.IdeDisk.dmaWriteFullPages            0                       # Number of full page size DMA writes. (Count)
system.pci_ide.disks.IdeDisk.dmaWriteBytes            0                       # Number of bytes transfered via DMA writes. (Byte)
system.pci_ide.disks.IdeDisk.dmaWriteTxs            0                       # Number of DMA write transactions. (Count)
system.pci_ide.power_state.pwrStateResidencyTicks::UNDEFINED 2075372508800                       # Cumulative time (in ticks) in various power states (Tick)
system.realview.bootmem.power_state.pwrStateResidencyTicks::UNDEFINED 2075372508800                       # Cumulative time (in ticks) in various power states (Tick)
system.realview.clock24MHz.clock                41667                       # Clock period in ticks (Tick)
system.realview.clock32KHz.clock             31250000                       # Clock period in ticks (Tick)
system.realview.dcc.osc_cpu.clock               16667                       # Clock period in ticks (Tick)
system.realview.dcc.osc_ddr.clock               25000                       # Clock period in ticks (Tick)
system.realview.dcc.osc_hsbm.clock              25000                       # Clock period in ticks (Tick)
system.realview.dcc.osc_pxl.clock               42105                       # Clock period in ticks (Tick)
system.realview.dcc.osc_smb.clock               20000                       # Clock period in ticks (Tick)
system.realview.dcc.osc_sys.clock               16667                       # Clock period in ticks (Tick)
system.realview.el2_watchdog.power_state.pwrStateResidencyTicks::UNDEFINED 2075372508800                       # Cumulative time (in ticks) in various power states (Tick)
system.realview.energy_ctrl.power_state.pwrStateResidencyTicks::UNDEFINED 2075372508800                       # Cumulative time (in ticks) in various power states (Tick)
system.realview.flash0.power_state.pwrStateResidencyTicks::UNDEFINED 2075372508800                       # Cumulative time (in ticks) in various power states (Tick)
system.realview.flash1.power_state.pwrStateResidencyTicks::UNDEFINED 2075372508800                       # Cumulative time (in ticks) in various power states (Tick)
system.realview.generic_timer_mem.frames0.power_state.pwrStateResidencyTicks::UNDEFINED 2075372508800                       # Cumulative time (in ticks) in various power states (Tick)
system.realview.generic_timer_mem.frames1.power_state.pwrStateResidencyTicks::UNDEFINED 2075372508800                       # Cumulative time (in ticks) in various power states (Tick)
system.realview.generic_timer_mem.power_state.pwrStateResidencyTicks::UNDEFINED 2075372508800                       # Cumulative time (in ticks) in various power states (Tick)
system.realview.gic.power_state.pwrStateResidencyTicks::UNDEFINED 2075372508800                       # Cumulative time (in ticks) in various power states (Tick)
system.realview.gicv2m.power_state.pwrStateResidencyTicks::UNDEFINED 2075372508800                       # Cumulative time (in ticks) in various power states (Tick)
system.realview.io_voltage.voltage           3.300000                       # Voltage in Volts (Volt)
system.realview.kmi0.power_state.pwrStateResidencyTicks::UNDEFINED 2075372508800                       # Cumulative time (in ticks) in various power states (Tick)
system.realview.kmi1.power_state.pwrStateResidencyTicks::UNDEFINED 2075372508800                       # Cumulative time (in ticks) in various power states (Tick)
system.realview.mcc.osc_clcd.clock              42105                       # Clock period in ticks (Tick)
system.realview.mcc.osc_mcc.clock               20000                       # Clock period in ticks (Tick)
system.realview.mcc.osc_peripheral.clock        41667                       # Clock period in ticks (Tick)
system.realview.mcc.osc_system_bus.clock        41667                       # Clock period in ticks (Tick)
system.realview.non_trusted_sram.power_state.pwrStateResidencyTicks::UNDEFINED 2075372508800                       # Cumulative time (in ticks) in various power states (Tick)
system.realview.pci_host.power_state.pwrStateResidencyTicks::UNDEFINED 2075372508800                       # Cumulative time (in ticks) in various power states (Tick)
system.realview.pwr_ctrl.power_state.pwrStateResidencyTicks::UNDEFINED 2075372508800                       # Cumulative time (in ticks) in various power states (Tick)
system.realview.realview_io.power_state.pwrStateResidencyTicks::UNDEFINED 2075372508800                       # Cumulative time (in ticks) in various power states (Tick)
system.realview.rtc.power_state.pwrStateResidencyTicks::UNDEFINED 2075372508800                       # Cumulative time (in ticks) in various power states (Tick)
system.realview.system_watchdog.power_state.pwrStateResidencyTicks::UNDEFINED 2075372508800                       # Cumulative time (in ticks) in various power states (Tick)
system.realview.trusted_dram.power_state.pwrStateResidencyTicks::UNDEFINED 2075372508800                       # Cumulative time (in ticks) in various power states (Tick)
system.realview.trusted_sram.power_state.pwrStateResidencyTicks::UNDEFINED 2075372508800                       # Cumulative time (in ticks) in various power states (Tick)
system.realview.trusted_watchdog.power_state.pwrStateResidencyTicks::UNDEFINED 2075372508800                       # Cumulative time (in ticks) in various power states (Tick)
system.realview.uart0.power_state.pwrStateResidencyTicks::UNDEFINED 2075372508800                       # Cumulative time (in ticks) in various power states (Tick)
system.realview.uart1.power_state.pwrStateResidencyTicks::UNDEFINED 2075372508800                       # Cumulative time (in ticks) in various power states (Tick)
system.realview.uart2.power_state.pwrStateResidencyTicks::UNDEFINED 2075372508800                       # Cumulative time (in ticks) in various power states (Tick)
system.realview.uart3.power_state.pwrStateResidencyTicks::UNDEFINED 2075372508800                       # Cumulative time (in ticks) in various power states (Tick)
system.realview.vgic.power_state.pwrStateResidencyTicks::UNDEFINED 2075372508800                       # Cumulative time (in ticks) in various power states (Tick)
system.realview.vio0.power_state.pwrStateResidencyTicks::UNDEFINED 2075372508800                       # Cumulative time (in ticks) in various power states (Tick)
system.realview.vio1.power_state.pwrStateResidencyTicks::UNDEFINED 2075372508800                       # Cumulative time (in ticks) in various power states (Tick)
system.realview.vram.power_state.pwrStateResidencyTicks::UNDEFINED 2075372508800                       # Cumulative time (in ticks) in various power states (Tick)
system.realview.watchdog.power_state.pwrStateResidencyTicks::UNDEFINED 2075372508800                       # Cumulative time (in ticks) in various power states (Tick)
system.tol2bus.transDist::ReadReq             2563639                       # Transaction distribution (Count)
system.tol2bus.transDist::ReadResp           18386933                       # Transaction distribution (Count)
system.tol2bus.transDist::WriteReq                419                       # Transaction distribution (Count)
system.tol2bus.transDist::WriteResp               419                       # Transaction distribution (Count)
system.tol2bus.transDist::WritebackDirty       172553                       # Transaction distribution (Count)
system.tol2bus.transDist::WritebackClean     15729607                       # Transaction distribution (Count)
system.tol2bus.transDist::CleanEvict         15854484                       # Transaction distribution (Count)
system.tol2bus.transDist::UpgradeReq               28                       # Transaction distribution (Count)
system.tol2bus.transDist::SCUpgradeReq              1                       # Transaction distribution (Count)
system.tol2bus.transDist::UpgradeResp              29                       # Transaction distribution (Count)
system.tol2bus.transDist::ReadExReq             12446                       # Transaction distribution (Count)
system.tol2bus.transDist::ReadExResp            12446                       # Transaction distribution (Count)
system.tol2bus.transDist::ReadCleanReq          12332                       # Transaction distribution (Count)
system.tol2bus.transDist::ReadSharedReq      15810961                       # Transaction distribution (Count)
system.tol2bus.transDist::CleanSharedReq          192                       # Transaction distribution (Count)
system.tol2bus.transDist::InvalidateReq          2492                       # Transaction distribution (Count)
system.tol2bus.transDist::InvalidateResp         2492                       # Transaction distribution (Count)
system.tol2bus.pktCount_system.cpu.icache.mem_side_port::system.l2.cpu_side_port        36998                       # Packet count per connected requestor and responder (Count)
system.tol2bus.pktCount_system.cpu.dcache.mem_side_port::system.l2.cpu_side_port     47480349                       # Packet count per connected requestor and responder (Count)
system.tol2bus.pktCount_system.cpu.mmu.itb_walker.port::system.l2.cpu_side_port         3079                       # Packet count per connected requestor and responder (Count)
system.tol2bus.pktCount_system.cpu.mmu.dtb_walker.port::system.l2.cpu_side_port      5122277                       # Packet count per connected requestor and responder (Count)
system.tol2bus.pktCount::total               52642703                       # Packet count per connected requestor and responder (Count)
system.tol2bus.pktSize_system.cpu.icache.mem_side_port::system.l2.cpu_side_port      1578624                       # Cumulative packet size per connected requestor and responder (Byte)
system.tol2bus.pktSize_system.cpu.dcache.mem_side_port::system.l2.cpu_side_port   2025559528                       # Cumulative packet size per connected requestor and responder (Byte)
system.tol2bus.pktSize_system.cpu.mmu.itb_walker.port::system.l2.cpu_side_port        11896                       # Cumulative packet size per connected requestor and responder (Byte)
system.tol2bus.pktSize_system.cpu.mmu.dtb_walker.port::system.l2.cpu_side_port     20488096                       # Cumulative packet size per connected requestor and responder (Byte)
system.tol2bus.pktSize::total              2047638144                       # Cumulative packet size per connected requestor and responder (Byte)
system.tol2bus.snoops                        15918770                       # Total snoops (Count)
system.tol2bus.snoopTraffic                   4094256                       # Total snoop traffic (Byte)
system.tol2bus.snoopFanout::samples          34320922                       # Request fanout histogram (Count)
system.tol2bus.snoopFanout::mean             0.007233                       # Request fanout histogram (Count)
system.tol2bus.snoopFanout::stdev            0.084744                       # Request fanout histogram (Count)
system.tol2bus.snoopFanout::underflows              0      0.00%      0.00% # Request fanout histogram (Count)
system.tol2bus.snoopFanout::0                34072688     99.28%     99.28% # Request fanout histogram (Count)
system.tol2bus.snoopFanout::1                  248222      0.72%    100.00% # Request fanout histogram (Count)
system.tol2bus.snoopFanout::2                      12      0.00%    100.00% # Request fanout histogram (Count)
system.tol2bus.snoopFanout::overflows               0      0.00%    100.00% # Request fanout histogram (Count)
system.tol2bus.snoopFanout::min_value               0                       # Request fanout histogram (Count)
system.tol2bus.snoopFanout::max_value               2                       # Request fanout histogram (Count)
system.tol2bus.snoopFanout::total            34320922                       # Request fanout histogram (Count)
system.tol2bus.power_state.pwrStateResidencyTicks::UNDEFINED 2075372508800                       # Cumulative time (in ticks) in various power states (Tick)
system.tol2bus.reqLayer0.occupancy        27923354442                       # Layer occupancy (ticks) (Tick)
system.tol2bus.reqLayer0.utilization              0.0                       # Layer utilization (Ratio)
system.tol2bus.respLayer0.occupancy          14802792                       # Layer occupancy (ticks) (Tick)
system.tol2bus.respLayer0.utilization             0.0                       # Layer utilization (Ratio)
system.tol2bus.respLayer1.occupancy       18990056774                       # Layer occupancy (ticks) (Tick)
system.tol2bus.respLayer1.utilization             0.0                       # Layer utilization (Ratio)
system.tol2bus.respLayer2.occupancy           1276893                       # Layer occupancy (ticks) (Tick)
system.tol2bus.respLayer2.utilization             0.0                       # Layer utilization (Ratio)
system.tol2bus.respLayer3.occupancy        2049016224                       # Layer occupancy (ticks) (Tick)
system.tol2bus.respLayer3.utilization             0.0                       # Layer utilization (Ratio)
system.tol2bus.snoop_filter.totRequests      31677076                       # Total number of requests made to the snoop filter. (Count)
system.tol2bus.snoop_filter.hitSingleRequests     15838653                       # Number of requests hitting in the snoop filter with a single holder of the requested data. (Count)
system.tol2bus.snoop_filter.hitMultiRequests          206                       # Number of requests hitting in the snoop filter with multiple (>1) holders of the requested data. (Count)
system.tol2bus.snoop_filter.totSnoops          247636                       # Total number of snoops made to the snoop filter. (Count)
system.tol2bus.snoop_filter.hitSingleSnoops       247624                       # Number of snoops hitting in the snoop filter with a single holder of the requested data. (Count)
system.tol2bus.snoop_filter.hitMultiSnoops           12                       # Number of snoops hitting in the snoop filter with multiple (>1) holders of the requested data. (Count)
system.voltage_domain.voltage                       1                       # Voltage in Volts (Volt)
system.workload.inst.arm                            0                       # number of arm instructions executed (Count)
system.workload.inst.quiesce                        0                       # number of quiesce instructions executed (Count)

---------- End Simulation Statistics   ----------
