
---------- Begin Simulation Statistics ----------
simSeconds                                   1.503028                       # Number of seconds simulated (Second)
simTicks                                 1503028139200                       # Number of ticks simulated (Tick)
finalTick                                3487150842000                       # Number of ticks from beginning of simulation (restored from checkpoints and never reset) (Tick)
simFreq                                  1000000000000                       # The number of ticks per simulated second ((Tick/Second))
hostSeconds                                  19756.66                       # Real time elapsed on the host (Second)
hostTickRate                                 76077044                       # The number of ticks simulated per host second (ticks/s) ((Tick/Second))
hostMemory                                    9151344                       # Number of bytes of host memory used (Byte)
simInsts                                   1780753449                       # Number of instructions simulated (Count)
simOps                                     1978283453                       # Number of ops (including micro ops) simulated (Count)
hostInstRate                                    90134                       # Simulator instruction rate (inst/s) ((Count/Second))
hostOpRate                                     100132                       # Simulator op (including micro ops) rate (op/s) ((Count/Second))
system.bridge.power_state.pwrStateResidencyTicks::UNDEFINED 3487150842000                       # Cumulative time (in ticks) in various power states (Tick)
system.clk_domain.clock                          1000                       # Clock period in ticks (Tick)
system.cpu.numCycles                       3757570348                       # Number of cpu cycles simulated (Cycle)
system.cpu.numWorkItemsStarted                      0                       # Number of work items this cpu started (Count)
system.cpu.numWorkItemsCompleted                    0                       # Number of work items this cpu completed (Count)
system.cpu.instsAdded                       478141684                       # Number of instructions added to the IQ (excludes non-spec) (Count)
system.cpu.nonSpecInstsAdded                    24306                       # Number of non-speculative instructions added to the IQ (Count)
system.cpu.instsIssued                      399202318                       # Number of instructions issued (Count)
system.cpu.squashedInstsIssued                8463727                       # Number of squashed instructions issued (Count)
system.cpu.squashedInstsExamined            108329049                       # Number of squashed instructions iterated over during squash; mainly for profiling (Count)
system.cpu.squashedOperandsExamined         180705091                       # Number of squashed operands that are examined and possibly removed from graph (Count)
system.cpu.squashedNonSpecRemoved                1544                       # Number of squashed non-spec instructions that were removed (Count)
system.cpu.numIssuedDist::samples          3757458577                       # Number of insts issued each cycle (Count)
system.cpu.numIssuedDist::mean               0.106243                       # Number of insts issued each cycle (Count)
system.cpu.numIssuedDist::stdev              0.419667                       # Number of insts issued each cycle (Count)
system.cpu.numIssuedDist::underflows                0      0.00%      0.00% # Number of insts issued each cycle (Count)
system.cpu.numIssuedDist::0                3473347020     92.44%     92.44% # Number of insts issued each cycle (Count)
system.cpu.numIssuedDist::1                 206400789      5.49%     97.93% # Number of insts issued each cycle (Count)
system.cpu.numIssuedDist::2                  40346970      1.07%     99.01% # Number of insts issued each cycle (Count)
system.cpu.numIssuedDist::3                  37347606      0.99%    100.00% # Number of insts issued each cycle (Count)
system.cpu.numIssuedDist::4                     16189      0.00%    100.00% # Number of insts issued each cycle (Count)
system.cpu.numIssuedDist::5                         3      0.00%    100.00% # Number of insts issued each cycle (Count)
system.cpu.numIssuedDist::6                         0      0.00%    100.00% # Number of insts issued each cycle (Count)
system.cpu.numIssuedDist::7                         0      0.00%    100.00% # Number of insts issued each cycle (Count)
system.cpu.numIssuedDist::8                         0      0.00%    100.00% # Number of insts issued each cycle (Count)
system.cpu.numIssuedDist::overflows                 0      0.00%    100.00% # Number of insts issued each cycle (Count)
system.cpu.numIssuedDist::min_value                 0                       # Number of insts issued each cycle (Count)
system.cpu.numIssuedDist::max_value                 5                       # Number of insts issued each cycle (Count)
system.cpu.numIssuedDist::total            3757458577                       # Number of insts issued each cycle (Count)
system.cpu.statFuBusy::No_OpClass                   0      0.00%      0.00% # attempts to use FU when none available (Count)
system.cpu.statFuBusy::IntAlu                16382016     14.37%     14.37% # attempts to use FU when none available (Count)
system.cpu.statFuBusy::IntMult                   6368      0.01%     14.38% # attempts to use FU when none available (Count)
system.cpu.statFuBusy::IntDiv                   10629      0.01%     14.39% # attempts to use FU when none available (Count)
system.cpu.statFuBusy::FloatAdd                     0      0.00%     14.39% # attempts to use FU when none available (Count)
system.cpu.statFuBusy::FloatCmp                     0      0.00%     14.39% # attempts to use FU when none available (Count)
system.cpu.statFuBusy::FloatCvt                     0      0.00%     14.39% # attempts to use FU when none available (Count)
system.cpu.statFuBusy::FloatMult                    0      0.00%     14.39% # attempts to use FU when none available (Count)
system.cpu.statFuBusy::FloatMultAcc                 0      0.00%     14.39% # attempts to use FU when none available (Count)
system.cpu.statFuBusy::FloatDiv                     0      0.00%     14.39% # attempts to use FU when none available (Count)
system.cpu.statFuBusy::FloatMisc                    0      0.00%     14.39% # attempts to use FU when none available (Count)
system.cpu.statFuBusy::FloatSqrt                    0      0.00%     14.39% # attempts to use FU when none available (Count)
system.cpu.statFuBusy::SimdAdd                      0      0.00%     14.39% # attempts to use FU when none available (Count)
system.cpu.statFuBusy::SimdAddAcc                   0      0.00%     14.39% # attempts to use FU when none available (Count)
system.cpu.statFuBusy::SimdAlu                      0      0.00%     14.39% # attempts to use FU when none available (Count)
system.cpu.statFuBusy::SimdCmp                      0      0.00%     14.39% # attempts to use FU when none available (Count)
system.cpu.statFuBusy::SimdCvt                      0      0.00%     14.39% # attempts to use FU when none available (Count)
system.cpu.statFuBusy::SimdMisc                     0      0.00%     14.39% # attempts to use FU when none available (Count)
system.cpu.statFuBusy::SimdMult                     0      0.00%     14.39% # attempts to use FU when none available (Count)
system.cpu.statFuBusy::SimdMultAcc                  0      0.00%     14.39% # attempts to use FU when none available (Count)
system.cpu.statFuBusy::SimdShift                    0      0.00%     14.39% # attempts to use FU when none available (Count)
system.cpu.statFuBusy::SimdShiftAcc                 0      0.00%     14.39% # attempts to use FU when none available (Count)
system.cpu.statFuBusy::SimdDiv                      0      0.00%     14.39% # attempts to use FU when none available (Count)
system.cpu.statFuBusy::SimdSqrt                     0      0.00%     14.39% # attempts to use FU when none available (Count)
system.cpu.statFuBusy::SimdFloatAdd                 0      0.00%     14.39% # attempts to use FU when none available (Count)
system.cpu.statFuBusy::SimdFloatAlu                 0      0.00%     14.39% # attempts to use FU when none available (Count)
system.cpu.statFuBusy::SimdFloatCmp                 0      0.00%     14.39% # attempts to use FU when none available (Count)
system.cpu.statFuBusy::SimdFloatCvt                 0      0.00%     14.39% # attempts to use FU when none available (Count)
system.cpu.statFuBusy::SimdFloatDiv                 0      0.00%     14.39% # attempts to use FU when none available (Count)
system.cpu.statFuBusy::SimdFloatMisc                0      0.00%     14.39% # attempts to use FU when none available (Count)
system.cpu.statFuBusy::SimdFloatMult                0      0.00%     14.39% # attempts to use FU when none available (Count)
system.cpu.statFuBusy::SimdFloatMultAcc             0      0.00%     14.39% # attempts to use FU when none available (Count)
system.cpu.statFuBusy::SimdFloatSqrt                0      0.00%     14.39% # attempts to use FU when none available (Count)
system.cpu.statFuBusy::SimdReduceAdd                0      0.00%     14.39% # attempts to use FU when none available (Count)
system.cpu.statFuBusy::SimdReduceAlu                0      0.00%     14.39% # attempts to use FU when none available (Count)
system.cpu.statFuBusy::SimdReduceCmp                0      0.00%     14.39% # attempts to use FU when none available (Count)
system.cpu.statFuBusy::SimdFloatReduceAdd            0      0.00%     14.39% # attempts to use FU when none available (Count)
system.cpu.statFuBusy::SimdFloatReduceCmp            0      0.00%     14.39% # attempts to use FU when none available (Count)
system.cpu.statFuBusy::SimdAes                      0      0.00%     14.39% # attempts to use FU when none available (Count)
system.cpu.statFuBusy::SimdAesMix                   0      0.00%     14.39% # attempts to use FU when none available (Count)
system.cpu.statFuBusy::SimdSha1Hash                 0      0.00%     14.39% # attempts to use FU when none available (Count)
system.cpu.statFuBusy::SimdSha1Hash2                0      0.00%     14.39% # attempts to use FU when none available (Count)
system.cpu.statFuBusy::SimdSha256Hash               0      0.00%     14.39% # attempts to use FU when none available (Count)
system.cpu.statFuBusy::SimdSha256Hash2              0      0.00%     14.39% # attempts to use FU when none available (Count)
system.cpu.statFuBusy::SimdShaSigma2                0      0.00%     14.39% # attempts to use FU when none available (Count)
system.cpu.statFuBusy::SimdShaSigma3                0      0.00%     14.39% # attempts to use FU when none available (Count)
system.cpu.statFuBusy::SimdPredAlu                  0      0.00%     14.39% # attempts to use FU when none available (Count)
system.cpu.statFuBusy::MemRead               97423170     85.47%     99.86% # attempts to use FU when none available (Count)
system.cpu.statFuBusy::MemWrite                157475      0.14%    100.00% # attempts to use FU when none available (Count)
system.cpu.statFuBusy::FloatMemRead                 0      0.00%    100.00% # attempts to use FU when none available (Count)
system.cpu.statFuBusy::FloatMemWrite                0      0.00%    100.00% # attempts to use FU when none available (Count)
system.cpu.statFuBusy::IprAccess                    0      0.00%    100.00% # attempts to use FU when none available (Count)
system.cpu.statFuBusy::InstPrefetch                 0      0.00%    100.00% # attempts to use FU when none available (Count)
system.cpu.statIssuedInstType_0::No_OpClass          375      0.00%      0.00% # Number of instructions issued per FU type, per thread (Count)
system.cpu.statIssuedInstType_0::IntAlu     215130338     53.89%     53.89% # Number of instructions issued per FU type, per thread (Count)
system.cpu.statIssuedInstType_0::IntMult        13204      0.00%     53.89% # Number of instructions issued per FU type, per thread (Count)
system.cpu.statIssuedInstType_0::IntDiv          2262      0.00%     53.89% # Number of instructions issued per FU type, per thread (Count)
system.cpu.statIssuedInstType_0::FloatAdd            0      0.00%     53.89% # Number of instructions issued per FU type, per thread (Count)
system.cpu.statIssuedInstType_0::FloatCmp            0      0.00%     53.89% # Number of instructions issued per FU type, per thread (Count)
system.cpu.statIssuedInstType_0::FloatCvt            0      0.00%     53.89% # Number of instructions issued per FU type, per thread (Count)
system.cpu.statIssuedInstType_0::FloatMult            0      0.00%     53.89% # Number of instructions issued per FU type, per thread (Count)
system.cpu.statIssuedInstType_0::FloatMultAcc            0      0.00%     53.89% # Number of instructions issued per FU type, per thread (Count)
system.cpu.statIssuedInstType_0::FloatDiv            0      0.00%     53.89% # Number of instructions issued per FU type, per thread (Count)
system.cpu.statIssuedInstType_0::FloatMisc            0      0.00%     53.89% # Number of instructions issued per FU type, per thread (Count)
system.cpu.statIssuedInstType_0::FloatSqrt            0      0.00%     53.89% # Number of instructions issued per FU type, per thread (Count)
system.cpu.statIssuedInstType_0::SimdAdd            0      0.00%     53.89% # Number of instructions issued per FU type, per thread (Count)
system.cpu.statIssuedInstType_0::SimdAddAcc            0      0.00%     53.89% # Number of instructions issued per FU type, per thread (Count)
system.cpu.statIssuedInstType_0::SimdAlu            0      0.00%     53.89% # Number of instructions issued per FU type, per thread (Count)
system.cpu.statIssuedInstType_0::SimdCmp            0      0.00%     53.89% # Number of instructions issued per FU type, per thread (Count)
system.cpu.statIssuedInstType_0::SimdCvt            0      0.00%     53.89% # Number of instructions issued per FU type, per thread (Count)
system.cpu.statIssuedInstType_0::SimdMisc            0      0.00%     53.89% # Number of instructions issued per FU type, per thread (Count)
system.cpu.statIssuedInstType_0::SimdMult            0      0.00%     53.89% # Number of instructions issued per FU type, per thread (Count)
system.cpu.statIssuedInstType_0::SimdMultAcc            0      0.00%     53.89% # Number of instructions issued per FU type, per thread (Count)
system.cpu.statIssuedInstType_0::SimdShift            0      0.00%     53.89% # Number of instructions issued per FU type, per thread (Count)
system.cpu.statIssuedInstType_0::SimdShiftAcc            0      0.00%     53.89% # Number of instructions issued per FU type, per thread (Count)
system.cpu.statIssuedInstType_0::SimdDiv            0      0.00%     53.89% # Number of instructions issued per FU type, per thread (Count)
system.cpu.statIssuedInstType_0::SimdSqrt            0      0.00%     53.89% # Number of instructions issued per FU type, per thread (Count)
system.cpu.statIssuedInstType_0::SimdFloatAdd            0      0.00%     53.89% # Number of instructions issued per FU type, per thread (Count)
system.cpu.statIssuedInstType_0::SimdFloatAlu            0      0.00%     53.89% # Number of instructions issued per FU type, per thread (Count)
system.cpu.statIssuedInstType_0::SimdFloatCmp            0      0.00%     53.89% # Number of instructions issued per FU type, per thread (Count)
system.cpu.statIssuedInstType_0::SimdFloatCvt            0      0.00%     53.89% # Number of instructions issued per FU type, per thread (Count)
system.cpu.statIssuedInstType_0::SimdFloatDiv            0      0.00%     53.89% # Number of instructions issued per FU type, per thread (Count)
system.cpu.statIssuedInstType_0::SimdFloatMisc            0      0.00%     53.89% # Number of instructions issued per FU type, per thread (Count)
system.cpu.statIssuedInstType_0::SimdFloatMult            0      0.00%     53.89% # Number of instructions issued per FU type, per thread (Count)
system.cpu.statIssuedInstType_0::SimdFloatMultAcc            0      0.00%     53.89% # Number of instructions issued per FU type, per thread (Count)
system.cpu.statIssuedInstType_0::SimdFloatSqrt            0      0.00%     53.89% # Number of instructions issued per FU type, per thread (Count)
system.cpu.statIssuedInstType_0::SimdReduceAdd            0      0.00%     53.89% # Number of instructions issued per FU type, per thread (Count)
system.cpu.statIssuedInstType_0::SimdReduceAlu            0      0.00%     53.89% # Number of instructions issued per FU type, per thread (Count)
system.cpu.statIssuedInstType_0::SimdReduceCmp            0      0.00%     53.89% # Number of instructions issued per FU type, per thread (Count)
system.cpu.statIssuedInstType_0::SimdFloatReduceAdd            0      0.00%     53.89% # Number of instructions issued per FU type, per thread (Count)
system.cpu.statIssuedInstType_0::SimdFloatReduceCmp            0      0.00%     53.89% # Number of instructions issued per FU type, per thread (Count)
system.cpu.statIssuedInstType_0::SimdAes            0      0.00%     53.89% # Number of instructions issued per FU type, per thread (Count)
system.cpu.statIssuedInstType_0::SimdAesMix            0      0.00%     53.89% # Number of instructions issued per FU type, per thread (Count)
system.cpu.statIssuedInstType_0::SimdSha1Hash            0      0.00%     53.89% # Number of instructions issued per FU type, per thread (Count)
system.cpu.statIssuedInstType_0::SimdSha1Hash2            0      0.00%     53.89% # Number of instructions issued per FU type, per thread (Count)
system.cpu.statIssuedInstType_0::SimdSha256Hash            0      0.00%     53.89% # Number of instructions issued per FU type, per thread (Count)
system.cpu.statIssuedInstType_0::SimdSha256Hash2            0      0.00%     53.89% # Number of instructions issued per FU type, per thread (Count)
system.cpu.statIssuedInstType_0::SimdShaSigma2            0      0.00%     53.89% # Number of instructions issued per FU type, per thread (Count)
system.cpu.statIssuedInstType_0::SimdShaSigma3            0      0.00%     53.89% # Number of instructions issued per FU type, per thread (Count)
system.cpu.statIssuedInstType_0::SimdPredAlu            0      0.00%     53.89% # Number of instructions issued per FU type, per thread (Count)
system.cpu.statIssuedInstType_0::MemRead    183710735     46.02%     99.91% # Number of instructions issued per FU type, per thread (Count)
system.cpu.statIssuedInstType_0::MemWrite       345404      0.09%    100.00% # Number of instructions issued per FU type, per thread (Count)
system.cpu.statIssuedInstType_0::FloatMemRead            0      0.00%    100.00% # Number of instructions issued per FU type, per thread (Count)
system.cpu.statIssuedInstType_0::FloatMemWrite            0      0.00%    100.00% # Number of instructions issued per FU type, per thread (Count)
system.cpu.statIssuedInstType_0::IprAccess            0      0.00%    100.00% # Number of instructions issued per FU type, per thread (Count)
system.cpu.statIssuedInstType_0::InstPrefetch            0      0.00%    100.00% # Number of instructions issued per FU type, per thread (Count)
system.cpu.statIssuedInstType_0::total      399202318                       # Number of instructions issued per FU type, per thread (Count)
system.cpu.issueRate                         0.106239                       # Inst issue rate ((Count/Cycle))
system.cpu.fuBusy                           113979658                       # FU busy when requested (Count)
system.cpu.fuBusyRate                        0.285519                       # FU busy rate (busy events/executed inst) ((Count/Count))
system.cpu.intInstQueueReads               4678306240                       # Number of integer instruction queue reads (Count)
system.cpu.intInstQueueWrites               586495688                       # Number of integer instruction queue writes (Count)
system.cpu.intInstQueueWakeupAccesses       387955677                       # Number of integer instruction queue wakeup accesses (Count)
system.cpu.fpInstQueueReads                         0                       # Number of floating instruction queue reads (Count)
system.cpu.fpInstQueueWrites                        0                       # Number of floating instruction queue writes (Count)
system.cpu.fpInstQueueWakeupAccesses                0                       # Number of floating instruction queue wakeup accesses (Count)
system.cpu.vecInstQueueReads                      357                       # Number of vector instruction queue reads (Count)
system.cpu.vecInstQueueWrites                     131                       # Number of vector instruction queue writes (Count)
system.cpu.vecInstQueueWakeupAccesses             128                       # Number of vector instruction queue wakeup accesses (Count)
system.cpu.intAluAccesses                   513181374                       # Number of integer alu accesses (Count)
system.cpu.fpAluAccesses                            0                       # Number of floating point alu accesses (Count)
system.cpu.vecAluAccesses                         227                       # Number of vector alu accesses (Count)
system.cpu.numInsts                         388686715                       # Number of executed instructions (Count)
system.cpu.numLoadInsts                     173208306                       # Number of load instructions executed (Count)
system.cpu.numSquashedInsts                   6072203                       # Number of squashed instructions skipped in execute (Count)
system.cpu.numSwp                                   0                       # Number of swp insts executed (Count)
system.cpu.numNop                                6445                       # Number of nop insts executed (Count)
system.cpu.numRefs                          173550661                       # Number of memory reference insts executed (Count)
system.cpu.numBranches                       80146689                       # Number of branches executed (Count)
system.cpu.numStoreInsts                       342355                       # Number of stores executed (Count)
system.cpu.numRate                           0.103441                       # Inst execution rate ((Count/Cycle))
system.cpu.timesIdled                            1807                       # Number of times that the entire CPU went into an idle state and unscheduled itself (Count)
system.cpu.idleCycles                          111771                       # Total number of cycles that the CPU has spent unscheduled due to idling (Cycle)
system.cpu.committedInsts                   369413141                       # Number of Instructions Simulated (Count)
system.cpu.committedOps                     369836946                       # Number of Ops (including micro ops) Simulated (Count)
system.cpu.cpi                              10.171729                       # CPI: Cycles Per Instruction ((Cycle/Count))
system.cpu.totalCpi                         10.171729                       # CPI: Total CPI of All Threads ((Cycle/Count))
system.cpu.ipc                               0.098312                       # IPC: Instructions Per Cycle ((Count/Cycle))
system.cpu.totalIpc                          0.098312                       # IPC: Total IPC of All Threads ((Count/Cycle))
system.cpu.intRegfileReads                  506526122                       # Number of integer regfile reads (Count)
system.cpu.intRegfileWrites                 228901390                       # Number of integer regfile writes (Count)
system.cpu.vecRegfileReads                        128                       # number of vector regfile reads (Count)
system.cpu.ccRegfileReads                   234812046                       # number of cc regfile reads (Count)
system.cpu.ccRegfileWrites                  236352204                       # number of cc regfile writes (Count)
system.cpu.miscRegfileReads                3920666335                       # number of misc regfile reads (Count)
system.cpu.miscRegfileWrites                    23946                       # number of misc regfile writes (Count)
system.cpu.MemDepUnit__0.insertedLoads      202578537                       # Number of loads inserted to the mem dependence unit. (Count)
system.cpu.MemDepUnit__0.insertedStores        358757                       # Number of stores inserted to the mem dependence unit. (Count)
system.cpu.MemDepUnit__0.conflictingLoads        50840                       # Number of conflicting loads. (Count)
system.cpu.MemDepUnit__0.conflictingStores        41136                       # Number of conflicting stores. (Count)
system.cpu.MemDepUnit__1.insertedLoads              0                       # Number of loads inserted to the mem dependence unit. (Count)
system.cpu.MemDepUnit__1.insertedStores             0                       # Number of stores inserted to the mem dependence unit. (Count)
system.cpu.MemDepUnit__1.conflictingLoads            0                       # Number of conflicting loads. (Count)
system.cpu.MemDepUnit__1.conflictingStores            0                       # Number of conflicting stores. (Count)
system.cpu.MemDepUnit__2.insertedLoads              0                       # Number of loads inserted to the mem dependence unit. (Count)
system.cpu.MemDepUnit__2.insertedStores             0                       # Number of stores inserted to the mem dependence unit. (Count)
system.cpu.MemDepUnit__2.conflictingLoads            0                       # Number of conflicting loads. (Count)
system.cpu.MemDepUnit__2.conflictingStores            0                       # Number of conflicting stores. (Count)
system.cpu.MemDepUnit__3.insertedLoads              0                       # Number of loads inserted to the mem dependence unit. (Count)
system.cpu.MemDepUnit__3.insertedStores             0                       # Number of stores inserted to the mem dependence unit. (Count)
system.cpu.MemDepUnit__3.conflictingLoads            0                       # Number of conflicting loads. (Count)
system.cpu.MemDepUnit__3.conflictingStores            0                       # Number of conflicting stores. (Count)
system.cpu.branchPred.lookups               136765048                       # Number of BP lookups (Count)
system.cpu.branchPred.condPredicted         136490882                       # Number of conditional branches predicted (Count)
system.cpu.branchPred.condIncorrect           3840683                       # Number of conditional branches incorrect (Count)
system.cpu.branchPred.BTBLookups             47284562                       # Number of BTB lookups (Count)
system.cpu.branchPred.BTBUpdates               704336                       # Number of BTB updates (Count)
system.cpu.branchPred.BTBHits                47250422                       # Number of BTB hits (Count)
system.cpu.branchPred.BTBHitRatio            0.999278                       # BTB Hit Ratio (Ratio)
system.cpu.branchPred.RASUsed                  112533                       # Number of times the RAS was used to get a target. (Count)
system.cpu.branchPred.RASIncorrect                401                       # Number of incorrect RAS predictions. (Count)
system.cpu.branchPred.indirectLookups            8340                       # Number of indirect predictor lookups. (Count)
system.cpu.branchPred.indirectHits               6996                       # Number of indirect target hits. (Count)
system.cpu.branchPred.indirectMisses             1344                       # Number of indirect misses. (Count)
system.cpu.branchPred.indirectMispredicted          289                       # Number of mispredicted indirect branches. (Count)
system.cpu.commit.commitSquashedInsts       105737880                       # The number of squashed insts skipped by commit (Count)
system.cpu.commit.commitNonSpecStalls           22762                       # The number of times commit has been forced to stall to communicate backwards (Count)
system.cpu.commit.branchMispredicts           3829923                       # The number of times a branch was mispredicted (Count)
system.cpu.commit.numCommittedDist::samples   3741972627                       # Number of insts commited each cycle (Count)
system.cpu.commit.numCommittedDist::mean     0.098836                       # Number of insts commited each cycle (Count)
system.cpu.commit.numCommittedDist::stdev     0.545580                       # Number of insts commited each cycle (Count)
system.cpu.commit.numCommittedDist::underflows            0      0.00%      0.00% # Number of insts commited each cycle (Count)
system.cpu.commit.numCommittedDist::0      3564005128     95.24%     95.24% # Number of insts commited each cycle (Count)
system.cpu.commit.numCommittedDist::1        83835138      2.24%     97.48% # Number of insts commited each cycle (Count)
system.cpu.commit.numCommittedDist::2        47353649      1.27%     98.75% # Number of insts commited each cycle (Count)
system.cpu.commit.numCommittedDist::3        25928617      0.69%     99.44% # Number of insts commited each cycle (Count)
system.cpu.commit.numCommittedDist::4          537804      0.01%     99.46% # Number of insts commited each cycle (Count)
system.cpu.commit.numCommittedDist::5        17024165      0.45%     99.91% # Number of insts commited each cycle (Count)
system.cpu.commit.numCommittedDist::6           25955      0.00%     99.91% # Number of insts commited each cycle (Count)
system.cpu.commit.numCommittedDist::7           10045      0.00%     99.91% # Number of insts commited each cycle (Count)
system.cpu.commit.numCommittedDist::8         3252126      0.09%    100.00% # Number of insts commited each cycle (Count)
system.cpu.commit.numCommittedDist::overflows            0      0.00%    100.00% # Number of insts commited each cycle (Count)
system.cpu.commit.numCommittedDist::min_value            0                       # Number of insts commited each cycle (Count)
system.cpu.commit.numCommittedDist::max_value            8                       # Number of insts commited each cycle (Count)
system.cpu.commit.numCommittedDist::total   3741972627                       # Number of insts commited each cycle (Count)
system.cpu.commit.instsCommitted            369419576                       # Number of instructions committed (Count)
system.cpu.commit.opsCommitted              369843381                       # Number of ops (including micro ops) committed (Count)
system.cpu.commit.memRefs                   155721443                       # Number of memory references committed (Count)
system.cpu.commit.loads                     155394265                       # Number of loads committed (Count)
system.cpu.commit.amos                              0                       # Number of atomic instructions committed (Count)
system.cpu.commit.membars                       15118                       # Number of memory barriers committed (Count)
system.cpu.commit.branches                   79697879                       # Number of branches committed (Count)
system.cpu.commit.vectorInstructions              128                       # Number of committed Vector instructions. (Count)
system.cpu.commit.floating                          0                       # Number of committed floating point instructions. (Count)
system.cpu.commit.integer                   341586869                       # Number of committed integer instructions. (Count)
system.cpu.commit.functionCalls                 83109                       # Number of function calls committed. (Count)
system.cpu.commit.committedInstType_0::No_OpClass            0      0.00%      0.00% # Class of committed instruction (Count)
system.cpu.commit.committedInstType_0::IntAlu    214106486     57.89%     57.89% # Class of committed instruction (Count)
system.cpu.commit.committedInstType_0::IntMult        13196      0.00%     57.89% # Class of committed instruction (Count)
system.cpu.commit.committedInstType_0::IntDiv         2256      0.00%     57.90% # Class of committed instruction (Count)
system.cpu.commit.committedInstType_0::FloatAdd            0      0.00%     57.90% # Class of committed instruction (Count)
system.cpu.commit.committedInstType_0::FloatCmp            0      0.00%     57.90% # Class of committed instruction (Count)
system.cpu.commit.committedInstType_0::FloatCvt            0      0.00%     57.90% # Class of committed instruction (Count)
system.cpu.commit.committedInstType_0::FloatMult            0      0.00%     57.90% # Class of committed instruction (Count)
system.cpu.commit.committedInstType_0::FloatMultAcc            0      0.00%     57.90% # Class of committed instruction (Count)
system.cpu.commit.committedInstType_0::FloatDiv            0      0.00%     57.90% # Class of committed instruction (Count)
system.cpu.commit.committedInstType_0::FloatMisc            0      0.00%     57.90% # Class of committed instruction (Count)
system.cpu.commit.committedInstType_0::FloatSqrt            0      0.00%     57.90% # Class of committed instruction (Count)
system.cpu.commit.committedInstType_0::SimdAdd            0      0.00%     57.90% # Class of committed instruction (Count)
system.cpu.commit.committedInstType_0::SimdAddAcc            0      0.00%     57.90% # Class of committed instruction (Count)
system.cpu.commit.committedInstType_0::SimdAlu            0      0.00%     57.90% # Class of committed instruction (Count)
system.cpu.commit.committedInstType_0::SimdCmp            0      0.00%     57.90% # Class of committed instruction (Count)
system.cpu.commit.committedInstType_0::SimdCvt            0      0.00%     57.90% # Class of committed instruction (Count)
system.cpu.commit.committedInstType_0::SimdMisc            0      0.00%     57.90% # Class of committed instruction (Count)
system.cpu.commit.committedInstType_0::SimdMult            0      0.00%     57.90% # Class of committed instruction (Count)
system.cpu.commit.committedInstType_0::SimdMultAcc            0      0.00%     57.90% # Class of committed instruction (Count)
system.cpu.commit.committedInstType_0::SimdShift            0      0.00%     57.90% # Class of committed instruction (Count)
system.cpu.commit.committedInstType_0::SimdShiftAcc            0      0.00%     57.90% # Class of committed instruction (Count)
system.cpu.commit.committedInstType_0::SimdDiv            0      0.00%     57.90% # Class of committed instruction (Count)
system.cpu.commit.committedInstType_0::SimdSqrt            0      0.00%     57.90% # Class of committed instruction (Count)
system.cpu.commit.committedInstType_0::SimdFloatAdd            0      0.00%     57.90% # Class of committed instruction (Count)
system.cpu.commit.committedInstType_0::SimdFloatAlu            0      0.00%     57.90% # Class of committed instruction (Count)
system.cpu.commit.committedInstType_0::SimdFloatCmp            0      0.00%     57.90% # Class of committed instruction (Count)
system.cpu.commit.committedInstType_0::SimdFloatCvt            0      0.00%     57.90% # Class of committed instruction (Count)
system.cpu.commit.committedInstType_0::SimdFloatDiv            0      0.00%     57.90% # Class of committed instruction (Count)
system.cpu.commit.committedInstType_0::SimdFloatMisc            0      0.00%     57.90% # Class of committed instruction (Count)
system.cpu.commit.committedInstType_0::SimdFloatMult            0      0.00%     57.90% # Class of committed instruction (Count)
system.cpu.commit.committedInstType_0::SimdFloatMultAcc            0      0.00%     57.90% # Class of committed instruction (Count)
system.cpu.commit.committedInstType_0::SimdFloatSqrt            0      0.00%     57.90% # Class of committed instruction (Count)
system.cpu.commit.committedInstType_0::SimdReduceAdd            0      0.00%     57.90% # Class of committed instruction (Count)
system.cpu.commit.committedInstType_0::SimdReduceAlu            0      0.00%     57.90% # Class of committed instruction (Count)
system.cpu.commit.committedInstType_0::SimdReduceCmp            0      0.00%     57.90% # Class of committed instruction (Count)
system.cpu.commit.committedInstType_0::SimdFloatReduceAdd            0      0.00%     57.90% # Class of committed instruction (Count)
system.cpu.commit.committedInstType_0::SimdFloatReduceCmp            0      0.00%     57.90% # Class of committed instruction (Count)
system.cpu.commit.committedInstType_0::SimdAes            0      0.00%     57.90% # Class of committed instruction (Count)
system.cpu.commit.committedInstType_0::SimdAesMix            0      0.00%     57.90% # Class of committed instruction (Count)
system.cpu.commit.committedInstType_0::SimdSha1Hash            0      0.00%     57.90% # Class of committed instruction (Count)
system.cpu.commit.committedInstType_0::SimdSha1Hash2            0      0.00%     57.90% # Class of committed instruction (Count)
system.cpu.commit.committedInstType_0::SimdSha256Hash            0      0.00%     57.90% # Class of committed instruction (Count)
system.cpu.commit.committedInstType_0::SimdSha256Hash2            0      0.00%     57.90% # Class of committed instruction (Count)
system.cpu.commit.committedInstType_0::SimdShaSigma2            0      0.00%     57.90% # Class of committed instruction (Count)
system.cpu.commit.committedInstType_0::SimdShaSigma3            0      0.00%     57.90% # Class of committed instruction (Count)
system.cpu.commit.committedInstType_0::SimdPredAlu            0      0.00%     57.90% # Class of committed instruction (Count)
system.cpu.commit.committedInstType_0::MemRead    155394265     42.02%     99.91% # Class of committed instruction (Count)
system.cpu.commit.committedInstType_0::MemWrite       327178      0.09%    100.00% # Class of committed instruction (Count)
system.cpu.commit.committedInstType_0::FloatMemRead            0      0.00%    100.00% # Class of committed instruction (Count)
system.cpu.commit.committedInstType_0::FloatMemWrite            0      0.00%    100.00% # Class of committed instruction (Count)
system.cpu.commit.committedInstType_0::IprAccess            0      0.00%    100.00% # Class of committed instruction (Count)
system.cpu.commit.committedInstType_0::InstPrefetch            0      0.00%    100.00% # Class of committed instruction (Count)
system.cpu.commit.committedInstType_0::total    369843381                       # Class of committed instruction (Count)
system.cpu.commit.commitEligibleSamples       3252126                       # number cycles where commit BW limit reached (Cycle)
system.cpu.dcache.demandHits::cpu.data       83011392                       # number of demand (read+write) hits (Count)
system.cpu.dcache.demandHits::total          83011392                       # number of demand (read+write) hits (Count)
system.cpu.dcache.demandHitsPerPC::401050      2555031                       # number of demand (read+write) hits (Count)
system.cpu.dcache.demandHitsPerPC::401088      4087355                       # number of demand (read+write) hits (Count)
system.cpu.dcache.demandHitsPerPC::401058      3133121                       # number of demand (read+write) hits (Count)
system.cpu.dcache.demandHitsPerPC::401064      3133333                       # number of demand (read+write) hits (Count)
system.cpu.dcache.demandHitsPerPC::40107c      3396286                       # number of demand (read+write) hits (Count)
system.cpu.dcache.demandHitsPerPC::total     16305126                       # number of demand (read+write) hits (Count)
system.cpu.dcache.demandHitsAtPf::cpu.data      2853269                       # number of demand (read+write) hits (Count)
system.cpu.dcache.demandHitsAtPf::total       2853269                       # number of demand (read+write) hits (Count)
system.cpu.dcache.demandHitsAtPfPerPC::401050       315000                       # number of demand (read+write) hits (Count)
system.cpu.dcache.demandHitsAtPfPerPC::401058      2538267                       # number of demand (read+write) hits (Count)
system.cpu.dcache.demandHitsAtPfPerPC::total      2853267                       # number of demand (read+write) hits (Count)
system.cpu.dcache.demandHitsAtPfAlloc::cpu.data     12679928                       # number of demand (read+write) hits (Count)
system.cpu.dcache.demandHitsAtPfAlloc::total     12679928                       # number of demand (read+write) hits (Count)
system.cpu.dcache.demandHitsAtPfAllocPerPC::401050      2520032                       # number of demand (read+write) hits (Count)
system.cpu.dcache.demandHitsAtPfAllocPerPC::401088      2539972                       # number of demand (read+write) hits (Count)
system.cpu.dcache.demandHitsAtPfAllocPerPC::401058      2539970                       # number of demand (read+write) hits (Count)
system.cpu.dcache.demandHitsAtPfAllocPerPC::401064      2539970                       # number of demand (read+write) hits (Count)
system.cpu.dcache.demandHitsAtPfAllocPerPC::40107c      2539968                       # number of demand (read+write) hits (Count)
system.cpu.dcache.demandHitsAtPfAllocPerPC::total     12679912                       # number of demand (read+write) hits (Count)
system.cpu.dcache.hitsAtPfCoverAccess::8     0.016444                       # hits at prefetch / demand accesses (Count)
system.cpu.dcache.hitsAtPfCoverAccess::total     0.016444                       # hits at prefetch / demand accesses (Count)
system.cpu.dcache.hitsAtPfCoverAccessPerPC::401050     0.123045                       # hits at prefetch / demand accesses (Count)
system.cpu.dcache.hitsAtPfCoverAccessPerPC::401058     0.099147                       # hits at prefetch / demand accesses (Count)
system.cpu.dcache.hitsAtPfCoverAccessPerPC::total     0.026983                       # hits at prefetch / demand accesses (Count)
system.cpu.dcache.hitsAtPfAllocCoverAccess::8     0.073078                       # hits at prefetch alloc / demand accesses (Count)
system.cpu.dcache.hitsAtPfAllocCoverAccess::total     0.073078                       # hits at prefetch alloc / demand accesses (Count)
system.cpu.dcache.hitsAtPfAllocCoverAccessPerPC::401050     0.984374                       # hits at prefetch alloc / demand accesses (Count)
system.cpu.dcache.hitsAtPfAllocCoverAccessPerPC::401088     0.094560                       # hits at prefetch alloc / demand accesses (Count)
system.cpu.dcache.hitsAtPfAllocCoverAccessPerPC::401058     0.099214                       # hits at prefetch alloc / demand accesses (Count)
system.cpu.dcache.hitsAtPfAllocCoverAccessPerPC::401064     0.099214                       # hits at prefetch alloc / demand accesses (Count)
system.cpu.dcache.hitsAtPfAllocCoverAccessPerPC::40107c     0.101118                       # hits at prefetch alloc / demand accesses (Count)
system.cpu.dcache.hitsAtPfAllocCoverAccessPerPC::total     0.119914                       # hits at prefetch alloc / demand accesses (Count)
system.cpu.dcache.hitsPfRatio::8             4.444000                       # hits at prefetch alloc / hits at prefetch (Count)
system.cpu.dcache.hitsPfRatio::total         4.444000                       # hits at prefetch alloc / hits at prefetch (Count)
system.cpu.dcache.hitsPfRatioPerPC::401050     8.000102                       # hits at prefetch alloc / hits at prefetch (Count)
system.cpu.dcache.hitsPfRatioPerPC::401088          inf                       # hits at prefetch alloc / hits at prefetch (Count)
system.cpu.dcache.hitsPfRatioPerPC::401058     1.000671                       # hits at prefetch alloc / hits at prefetch (Count)
system.cpu.dcache.hitsPfRatioPerPC::401064          inf                       # hits at prefetch alloc / hits at prefetch (Count)
system.cpu.dcache.hitsPfRatioPerPC::40107c          inf                       # hits at prefetch alloc / hits at prefetch (Count)
system.cpu.dcache.hitsPfRatioPerPC::total     4.443998                       # hits at prefetch alloc / hits at prefetch (Count)
system.cpu.dcache.overallHits::cpu.data      83012943                       # number of overall hits (Count)
system.cpu.dcache.overallHits::total         83012943                       # number of overall hits (Count)
system.cpu.dcache.demandMisses::cpu.data     90501148                       # number of demand (read+write) misses (Count)
system.cpu.dcache.demandMisses::total        90501148                       # number of demand (read+write) misses (Count)
system.cpu.dcache.demandMissesPerPC::401050         5004                       # number of demand (read+write) misses (Count)
system.cpu.dcache.demandMissesPerPC::401088     22773586                       # number of demand (read+write) misses (Count)
system.cpu.dcache.demandMissesPerPC::401058     22467878                       # number of demand (read+write) misses (Count)
system.cpu.dcache.demandMissesPerPC::401064     22467664                       # number of demand (read+write) misses (Count)
system.cpu.dcache.demandMissesPerPC::40107c     21722631                       # number of demand (read+write) misses (Count)
system.cpu.dcache.demandMissesPerPC::total     89436763                       # number of demand (read+write) misses (Count)
system.cpu.dcache.overallMisses::cpu.data     90503411                       # number of overall misses (Count)
system.cpu.dcache.overallMisses::total       90503411                       # number of overall misses (Count)
system.cpu.dcache.demandMissLatency::cpu.data 5568380410899                       # number of demand (read+write) miss ticks (Tick)
system.cpu.dcache.demandMissLatency::total 5568380410899                       # number of demand (read+write) miss ticks (Tick)
system.cpu.dcache.overallMissLatency::cpu.data 5568380410899                       # number of overall miss ticks (Tick)
system.cpu.dcache.overallMissLatency::total 5568380410899                       # number of overall miss ticks (Tick)
system.cpu.dcache.demandAccesses::cpu.data    173512540                       # number of demand (read+write) accesses (Count)
system.cpu.dcache.demandAccesses::total     173512540                       # number of demand (read+write) accesses (Count)
system.cpu.dcache.demandAccessesPerPC::401050      2560035                       # number of demand (read+write) accesses (Count)
system.cpu.dcache.demandAccessesPerPC::401088     26860941                       # number of demand (read+write) accesses (Count)
system.cpu.dcache.demandAccessesPerPC::401058     25600999                       # number of demand (read+write) accesses (Count)
system.cpu.dcache.demandAccessesPerPC::401064     25600997                       # number of demand (read+write) accesses (Count)
system.cpu.dcache.demandAccessesPerPC::40107c     25118917                       # number of demand (read+write) accesses (Count)
system.cpu.dcache.demandAccessesPerPC::total    105741889                       # number of demand (read+write) accesses (Count)
system.cpu.dcache.overallAccesses::cpu.data    173516354                       # number of overall (read+write) accesses (Count)
system.cpu.dcache.overallAccesses::total    173516354                       # number of overall (read+write) accesses (Count)
system.cpu.dcache.demandMissRate::cpu.data     0.521583                       # miss rate for demand accesses (Ratio)
system.cpu.dcache.demandMissRate::total      0.521583                       # miss rate for demand accesses (Ratio)
system.cpu.dcache.demandMissRatePerPC::401050     0.001955                       # miss rate for demand accesses (Ratio)
system.cpu.dcache.demandMissRatePerPC::401088     0.847833                       # miss rate for demand accesses (Ratio)
system.cpu.dcache.demandMissRatePerPC::401058     0.877617                       # miss rate for demand accesses (Ratio)
system.cpu.dcache.demandMissRatePerPC::401064     0.877609                       # miss rate for demand accesses (Ratio)
system.cpu.dcache.demandMissRatePerPC::40107c     0.864792                       # miss rate for demand accesses (Ratio)
system.cpu.dcache.overallMissRate::cpu.data     0.521584                       # miss rate for overall accesses (Ratio)
system.cpu.dcache.overallMissRate::total     0.521584                       # miss rate for overall accesses (Ratio)
system.cpu.dcache.demandAvgMissLatency::cpu.data 61528.284822                       # average overall miss latency in ticks ((Tick/Count))
system.cpu.dcache.demandAvgMissLatency::total 61528.284822                       # average overall miss latency in ticks ((Tick/Count))
system.cpu.dcache.overallAvgMissLatency::cpu.data 61526.746333                       # average overall miss latency ((Tick/Count))
system.cpu.dcache.overallAvgMissLatency::total 61526.746333                       # average overall miss latency ((Tick/Count))
system.cpu.dcache.blockedCycles::no_mshrs           55                       # number of cycles access was blocked (Cycle)
system.cpu.dcache.blockedCycles::no_targets       174146                       # number of cycles access was blocked (Cycle)
system.cpu.dcache.blockedCauses::no_mshrs            1                       # number of times access was blocked (Count)
system.cpu.dcache.blockedCauses::no_targets         2411                       # number of times access was blocked (Count)
system.cpu.dcache.avgBlocked::no_mshrs             55                       # average number of cycles each access was blocked ((Cycle/Count))
system.cpu.dcache.avgBlocked::no_targets    72.229780                       # average number of cycles each access was blocked ((Cycle/Count))
system.cpu.dcache.writebacks::writebacks     31457930                       # number of writebacks (Count)
system.cpu.dcache.writebacks::total          31457930                       # number of writebacks (Count)
system.cpu.dcache.demandMshrHits::cpu.data     61899206                       # number of demand (read+write) MSHR hits (Count)
system.cpu.dcache.demandMshrHits::total      61899206                       # number of demand (read+write) MSHR hits (Count)
system.cpu.dcache.demandMshrHitsPerPC::401050            1                       # number of demand (read+write) MSHR hits (Count)
system.cpu.dcache.demandMshrHitsPerPC::401088     22509241                       # number of demand (read+write) MSHR hits (Count)
system.cpu.dcache.demandMshrHitsPerPC::401058          716                       # number of demand (read+write) MSHR hits (Count)
system.cpu.dcache.demandMshrHitsPerPC::401064     22467664                       # number of demand (read+write) MSHR hits (Count)
system.cpu.dcache.demandMshrHitsPerPC::40107c     16229924                       # number of demand (read+write) MSHR hits (Count)
system.cpu.dcache.demandMshrHitsPerPC::total     61207546                       # number of demand (read+write) MSHR hits (Count)
system.cpu.dcache.overallMshrHits::cpu.data     61899206                       # number of overall MSHR hits (Count)
system.cpu.dcache.overallMshrHits::total     61899206                       # number of overall MSHR hits (Count)
system.cpu.dcache.demandMshrHitsAtPf::cpu.data           17                       # number of demand (read+write) MSHR hits (Count)
system.cpu.dcache.demandMshrHitsAtPf::total           17                       # number of demand (read+write) MSHR hits (Count)
system.cpu.dcache.demandMshrHitsAtPfPerPC::401058            1                       # number of demand (read+write) MSHR hits (Count)
system.cpu.dcache.demandMshrHitsAtPfPerPC::total            1                       # number of demand (read+write) MSHR hits (Count)
system.cpu.dcache.demandMshrMisses::cpu.data     28601942                       # number of demand (read+write) MSHR misses (Count)
system.cpu.dcache.demandMshrMisses::total     28601942                       # number of demand (read+write) MSHR misses (Count)
system.cpu.dcache.demandMshrMissesPerPC::401050         5003                       # number of demand (read+write) MSHR misses (Count)
system.cpu.dcache.demandMshrMissesPerPC::401088       264345                       # number of demand (read+write) MSHR misses (Count)
system.cpu.dcache.demandMshrMissesPerPC::401058     22467162                       # number of demand (read+write) MSHR misses (Count)
system.cpu.dcache.demandMshrMissesPerPC::40107c      5492707                       # number of demand (read+write) MSHR misses (Count)
system.cpu.dcache.demandMshrMissesPerPC::total     28229217                       # number of demand (read+write) MSHR misses (Count)
system.cpu.dcache.overallMshrMisses::cpu.data     28604203                       # number of overall MSHR misses (Count)
system.cpu.dcache.overallMshrMisses::cpu.dcache.prefetcher      2853721                       # number of overall MSHR misses (Count)
system.cpu.dcache.overallMshrMisses::total     31457924                       # number of overall MSHR misses (Count)
system.cpu.dcache.overallMshrUncacheable::cpu.data         1504                       # number of overall MSHR uncacheable misses (Count)
system.cpu.dcache.overallMshrUncacheable::total         1504                       # number of overall MSHR uncacheable misses (Count)
system.cpu.dcache.demandMshrMissLatency::cpu.data 1722909182099                       # number of demand (read+write) MSHR miss ticks (Tick)
system.cpu.dcache.demandMshrMissLatency::total 1722909182099                       # number of demand (read+write) MSHR miss ticks (Tick)
system.cpu.dcache.overallMshrMissLatency::cpu.data 1723044286899                       # number of overall MSHR miss ticks (Tick)
system.cpu.dcache.overallMshrMissLatency::cpu.dcache.prefetcher 168932741604                       # number of overall MSHR miss ticks (Tick)
system.cpu.dcache.overallMshrMissLatency::total 1891977028503                       # number of overall MSHR miss ticks (Tick)
system.cpu.dcache.overallMshrUncacheableLatency::cpu.data    120224400                       # number of overall MSHR uncacheable ticks (Tick)
system.cpu.dcache.overallMshrUncacheableLatency::total    120224400                       # number of overall MSHR uncacheable ticks (Tick)
system.cpu.dcache.demandMshrMissRate::cpu.data     0.164841                       # mshr miss ratio for demand accesses (Ratio)
system.cpu.dcache.demandMshrMissRate::total     0.164841                       # mshr miss ratio for demand accesses (Ratio)
system.cpu.dcache.overallMshrMissRate::cpu.data     0.164850                       # mshr miss ratio for overall accesses (Ratio)
system.cpu.dcache.overallMshrMissRate::cpu.dcache.prefetcher          inf                       # mshr miss ratio for overall accesses (Ratio)
system.cpu.dcache.overallMshrMissRate::total     0.181297                       # mshr miss ratio for overall accesses (Ratio)
system.cpu.dcache.demandAvgMshrMissLatency::cpu.data 60237.489542                       # average overall mshr miss latency ((Tick/Count))
system.cpu.dcache.demandAvgMshrMissLatency::total 60237.489542                       # average overall mshr miss latency ((Tick/Count))
system.cpu.dcache.overallAvgMshrMissLatency::cpu.data 60237.451360                       # average overall mshr miss latency ((Tick/Count))
system.cpu.dcache.overallAvgMshrMissLatency::cpu.dcache.prefetcher 59197.357276                       # average overall mshr miss latency ((Tick/Count))
system.cpu.dcache.overallAvgMshrMissLatency::total 60143.098715                       # average overall mshr miss latency ((Tick/Count))
system.cpu.dcache.overallAvgMshrUncacheableLatency::cpu.data 79936.436170                       # average overall mshr uncacheable latency ((Tick/Count))
system.cpu.dcache.overallAvgMshrUncacheableLatency::total 79936.436170                       # average overall mshr uncacheable latency ((Tick/Count))
system.cpu.dcache.replacements               31457930                       # number of replacements (Count)
system.cpu.dcache.prefetchFills               2853702                       # number of prefetch fills (Count)
system.cpu.dcache.prefetchHits                2853271                       # number of prefetch hits (Count)
system.cpu.dcache.HardPFReq.mshrMisses::cpu.dcache.prefetcher      2853721                       # number of HardPFReq MSHR misses (Count)
system.cpu.dcache.HardPFReq.mshrMisses::total      2853721                       # number of HardPFReq MSHR misses (Count)
system.cpu.dcache.HardPFReq.mshrMissLatency::cpu.dcache.prefetcher 168932741604                       # number of HardPFReq MSHR miss ticks (Tick)
system.cpu.dcache.HardPFReq.mshrMissLatency::total 168932741604                       # number of HardPFReq MSHR miss ticks (Tick)
system.cpu.dcache.HardPFReq.mshrMissRate::cpu.dcache.prefetcher          inf                       # mshr miss rate for HardPFReq accesses (Ratio)
system.cpu.dcache.HardPFReq.mshrMissRate::total          inf                       # mshr miss rate for HardPFReq accesses (Ratio)
system.cpu.dcache.HardPFReq.avgMshrMissLatency::cpu.dcache.prefetcher 59197.357276                       # average HardPFReq mshr miss latency ((Tick/Count))
system.cpu.dcache.HardPFReq.avgMshrMissLatency::total 59197.357276                       # average HardPFReq mshr miss latency ((Tick/Count))
system.cpu.dcache.LoadLockedReq.hits::cpu.data         1649                       # number of LoadLockedReq hits (Count)
system.cpu.dcache.LoadLockedReq.hits::total         1649                       # number of LoadLockedReq hits (Count)
system.cpu.dcache.LoadLockedReq.hitsAtPf::cpu.data            2                       # number of LoadLockedReq hits (Count)
system.cpu.dcache.LoadLockedReq.hitsAtPf::total            2                       # number of LoadLockedReq hits (Count)
system.cpu.dcache.LoadLockedReq.hitsAtPfAlloc::cpu.data           24                       # number of LoadLockedReq hits (Count)
system.cpu.dcache.LoadLockedReq.hitsAtPfAlloc::total           24                       # number of LoadLockedReq hits (Count)
system.cpu.dcache.LoadLockedReq.misses::cpu.data         1892                       # number of LoadLockedReq misses (Count)
system.cpu.dcache.LoadLockedReq.misses::total         1892                       # number of LoadLockedReq misses (Count)
system.cpu.dcache.LoadLockedReq.missLatency::cpu.data    115170800                       # number of LoadLockedReq miss ticks (Tick)
system.cpu.dcache.LoadLockedReq.missLatency::total    115170800                       # number of LoadLockedReq miss ticks (Tick)
system.cpu.dcache.LoadLockedReq.accesses::cpu.data         3541                       # number of LoadLockedReq accesses(hits+misses) (Count)
system.cpu.dcache.LoadLockedReq.accesses::total         3541                       # number of LoadLockedReq accesses(hits+misses) (Count)
system.cpu.dcache.LoadLockedReq.missRate::cpu.data     0.534312                       # miss rate for LoadLockedReq accesses (Ratio)
system.cpu.dcache.LoadLockedReq.missRate::total     0.534312                       # miss rate for LoadLockedReq accesses (Ratio)
system.cpu.dcache.LoadLockedReq.avgMissLatency::cpu.data 60872.515856                       # average LoadLockedReq miss latency ((Tick/Count))
system.cpu.dcache.LoadLockedReq.avgMissLatency::total 60872.515856                       # average LoadLockedReq miss latency ((Tick/Count))
system.cpu.dcache.LoadLockedReq.mshrHits::cpu.data         1888                       # number of LoadLockedReq MSHR hits (Count)
system.cpu.dcache.LoadLockedReq.mshrHits::total         1888                       # number of LoadLockedReq MSHR hits (Count)
system.cpu.dcache.LoadLockedReq.mshrHitsAtPf::8            2                       # number of LoadLockedReq MSHR hits at pfMSHR (Count)
system.cpu.dcache.LoadLockedReq.mshrHitsAtPf::total            2                       # number of LoadLockedReq MSHR hits at pfMSHR (Count)
system.cpu.dcache.LoadLockedReq.mshrMisses::cpu.data            4                       # number of LoadLockedReq MSHR misses (Count)
system.cpu.dcache.LoadLockedReq.mshrMisses::total            4                       # number of LoadLockedReq MSHR misses (Count)
system.cpu.dcache.LoadLockedReq.mshrMissLatency::cpu.data       239600                       # number of LoadLockedReq MSHR miss ticks (Tick)
system.cpu.dcache.LoadLockedReq.mshrMissLatency::total       239600                       # number of LoadLockedReq MSHR miss ticks (Tick)
system.cpu.dcache.LoadLockedReq.mshrMissRate::cpu.data     0.001130                       # mshr miss rate for LoadLockedReq accesses (Ratio)
system.cpu.dcache.LoadLockedReq.mshrMissRate::total     0.001130                       # mshr miss rate for LoadLockedReq accesses (Ratio)
system.cpu.dcache.LoadLockedReq.avgMshrMissLatency::cpu.data        59900                       # average LoadLockedReq mshr miss latency ((Tick/Count))
system.cpu.dcache.LoadLockedReq.avgMshrMissLatency::total        59900                       # average LoadLockedReq mshr miss latency ((Tick/Count))
system.cpu.dcache.ReadReq.hits::cpu.data     82730790                       # number of ReadReq hits (Count)
system.cpu.dcache.ReadReq.hits::total        82730790                       # number of ReadReq hits (Count)
system.cpu.dcache.ReadReq.hitsPerPC::401050      2555031                       # number of ReadReq hits (Count)
system.cpu.dcache.ReadReq.hitsPerPC::401088      4087355                       # number of ReadReq hits (Count)
system.cpu.dcache.ReadReq.hitsPerPC::401058      3133121                       # number of ReadReq hits (Count)
system.cpu.dcache.ReadReq.hitsPerPC::401064      3133333                       # number of ReadReq hits (Count)
system.cpu.dcache.ReadReq.hitsPerPC::40107c      3396286                       # number of ReadReq hits (Count)
system.cpu.dcache.ReadReq.hitsAtPf::cpu.data      2853267                       # number of ReadReq hits (Count)
system.cpu.dcache.ReadReq.hitsAtPf::total      2853267                       # number of ReadReq hits (Count)
system.cpu.dcache.ReadReq.hitsAtPfPerPC::401050       315000                       # number of ReadReq hits (Count)
system.cpu.dcache.ReadReq.hitsAtPfPerPC::401058      2538267                       # number of ReadReq hits (Count)
system.cpu.dcache.ReadReq.hitsAtPfAlloc::cpu.data     12679912                       # number of ReadReq hits (Count)
system.cpu.dcache.ReadReq.hitsAtPfAlloc::total     12679912                       # number of ReadReq hits (Count)
system.cpu.dcache.ReadReq.hitsAtPfAllocPerPC::401050      2520032                       # number of ReadReq hits (Count)
system.cpu.dcache.ReadReq.hitsAtPfAllocPerPC::401088      2539972                       # number of ReadReq hits (Count)
system.cpu.dcache.ReadReq.hitsAtPfAllocPerPC::401058      2539970                       # number of ReadReq hits (Count)
system.cpu.dcache.ReadReq.hitsAtPfAllocPerPC::401064      2539970                       # number of ReadReq hits (Count)
system.cpu.dcache.ReadReq.hitsAtPfAllocPerPC::40107c      2539968                       # number of ReadReq hits (Count)
system.cpu.dcache.ReadReq.misses::cpu.data     90457732                       # number of ReadReq misses (Count)
system.cpu.dcache.ReadReq.misses::total      90457732                       # number of ReadReq misses (Count)
system.cpu.dcache.ReadReq.missesPerPC::401050         5004                       # number of ReadReq misses (Count)
system.cpu.dcache.ReadReq.missesPerPC::401088     22773586                       # number of ReadReq misses (Count)
system.cpu.dcache.ReadReq.missesPerPC::401058     22467878                       # number of ReadReq misses (Count)
system.cpu.dcache.ReadReq.missesPerPC::401064     22467664                       # number of ReadReq misses (Count)
system.cpu.dcache.ReadReq.missesPerPC::40107c     21722631                       # number of ReadReq misses (Count)
system.cpu.dcache.ReadReq.missLatency::cpu.data 5566059539200                       # number of ReadReq miss ticks (Tick)
system.cpu.dcache.ReadReq.missLatency::total 5566059539200                       # number of ReadReq miss ticks (Tick)
system.cpu.dcache.ReadReq.accesses::cpu.data    173188522                       # number of ReadReq accesses(hits+misses) (Count)
system.cpu.dcache.ReadReq.accesses::total    173188522                       # number of ReadReq accesses(hits+misses) (Count)
system.cpu.dcache.ReadReq.accessesPerPC::401050      2560035                       # number of ReadReq accesses(hits+misses) (Count)
system.cpu.dcache.ReadReq.accessesPerPC::401088     26860941                       # number of ReadReq accesses(hits+misses) (Count)
system.cpu.dcache.ReadReq.accessesPerPC::401058     25600999                       # number of ReadReq accesses(hits+misses) (Count)
system.cpu.dcache.ReadReq.accessesPerPC::401064     25600997                       # number of ReadReq accesses(hits+misses) (Count)
system.cpu.dcache.ReadReq.accessesPerPC::40107c     25118917                       # number of ReadReq accesses(hits+misses) (Count)
system.cpu.dcache.ReadReq.missRate::cpu.data     0.522308                       # miss rate for ReadReq accesses (Ratio)
system.cpu.dcache.ReadReq.missRate::total     0.522308                       # miss rate for ReadReq accesses (Ratio)
system.cpu.dcache.ReadReq.avgMissLatency::cpu.data 61532.158900                       # average ReadReq miss latency ((Tick/Count))
system.cpu.dcache.ReadReq.avgMissLatency::total 61532.158900                       # average ReadReq miss latency ((Tick/Count))
system.cpu.dcache.ReadReq.mshrHits::cpu.data     61865225                       # number of ReadReq MSHR hits (Count)
system.cpu.dcache.ReadReq.mshrHits::total     61865225                       # number of ReadReq MSHR hits (Count)
system.cpu.dcache.ReadReq.mshrHitsPerPC::401050            1                       # number of ReadReq MSHR hits (Count)
system.cpu.dcache.ReadReq.mshrHitsPerPC::401088     22509241                       # number of ReadReq MSHR hits (Count)
system.cpu.dcache.ReadReq.mshrHitsPerPC::401058          716                       # number of ReadReq MSHR hits (Count)
system.cpu.dcache.ReadReq.mshrHitsPerPC::401064     22467664                       # number of ReadReq MSHR hits (Count)
system.cpu.dcache.ReadReq.mshrHitsPerPC::40107c     16229924                       # number of ReadReq MSHR hits (Count)
system.cpu.dcache.ReadReq.mshrHitsAtPf::8            3                       # number of ReadReq MSHR hits at pfMSHR (Count)
system.cpu.dcache.ReadReq.mshrHitsAtPf::total            3                       # number of ReadReq MSHR hits at pfMSHR (Count)
system.cpu.dcache.ReadReq.mshrHitsAtPfPerPC::401058            1                       # number of ReadReq MSHR hits at pfMSHR (Count)
system.cpu.dcache.ReadReq.mshrMisses::cpu.data     28592507                       # number of ReadReq MSHR misses (Count)
system.cpu.dcache.ReadReq.mshrMisses::total     28592507                       # number of ReadReq MSHR misses (Count)
system.cpu.dcache.ReadReq.mshrMissesPerPC::401050         5003                       # number of ReadReq MSHR misses (Count)
system.cpu.dcache.ReadReq.mshrMissesPerPC::401088       264345                       # number of ReadReq MSHR misses (Count)
system.cpu.dcache.ReadReq.mshrMissesPerPC::401058     22467162                       # number of ReadReq MSHR misses (Count)
system.cpu.dcache.ReadReq.mshrMissesPerPC::40107c      5492707                       # number of ReadReq MSHR misses (Count)
system.cpu.dcache.ReadReq.mshrUncacheable::cpu.data         1129                       # number of ReadReq MSHR uncacheable (Count)
system.cpu.dcache.ReadReq.mshrUncacheable::total         1129                       # number of ReadReq MSHR uncacheable (Count)
system.cpu.dcache.ReadReq.mshrMissLatency::cpu.data 1722352919600                       # number of ReadReq MSHR miss ticks (Tick)
system.cpu.dcache.ReadReq.mshrMissLatency::total 1722352919600                       # number of ReadReq MSHR miss ticks (Tick)
system.cpu.dcache.ReadReq.mshrUncacheableLatency::cpu.data    120224400                       # number of ReadReq MSHR uncacheable ticks (Tick)
system.cpu.dcache.ReadReq.mshrUncacheableLatency::total    120224400                       # number of ReadReq MSHR uncacheable ticks (Tick)
system.cpu.dcache.ReadReq.mshrMissRate::cpu.data     0.165095                       # mshr miss rate for ReadReq accesses (Ratio)
system.cpu.dcache.ReadReq.mshrMissRate::total     0.165095                       # mshr miss rate for ReadReq accesses (Ratio)
system.cpu.dcache.ReadReq.avgMshrMissLatency::cpu.data 60237.911968                       # average ReadReq mshr miss latency ((Tick/Count))
system.cpu.dcache.ReadReq.avgMshrMissLatency::total 60237.911968                       # average ReadReq mshr miss latency ((Tick/Count))
system.cpu.dcache.ReadReq.avgMshrUncacheableLatency::cpu.data 106487.511072                       # average ReadReq mshr uncacheable latency ((Tick/Count))
system.cpu.dcache.ReadReq.avgMshrUncacheableLatency::total 106487.511072                       # average ReadReq mshr uncacheable latency ((Tick/Count))
system.cpu.dcache.SoftPFExReq.hits::cpu.data         1551                       # number of SoftPFExReq hits (Count)
system.cpu.dcache.SoftPFExReq.hits::total         1551                       # number of SoftPFExReq hits (Count)
system.cpu.dcache.SoftPFExReq.misses::cpu.data         1888                       # number of SoftPFExReq misses (Count)
system.cpu.dcache.SoftPFExReq.misses::total         1888                       # number of SoftPFExReq misses (Count)
system.cpu.dcache.SoftPFExReq.accesses::cpu.data         3439                       # number of SoftPFExReq accesses(hits+misses) (Count)
system.cpu.dcache.SoftPFExReq.accesses::total         3439                       # number of SoftPFExReq accesses(hits+misses) (Count)
system.cpu.dcache.SoftPFExReq.missRate::cpu.data     0.548997                       # miss rate for SoftPFExReq accesses (Ratio)
system.cpu.dcache.SoftPFExReq.missRate::total     0.548997                       # miss rate for SoftPFExReq accesses (Ratio)
system.cpu.dcache.SoftPFExReq.mshrMisses::cpu.data         1886                       # number of SoftPFExReq MSHR misses (Count)
system.cpu.dcache.SoftPFExReq.mshrMisses::total         1886                       # number of SoftPFExReq MSHR misses (Count)
system.cpu.dcache.SoftPFExReq.mshrMissLatency::cpu.data    112624400                       # number of SoftPFExReq MSHR miss ticks (Tick)
system.cpu.dcache.SoftPFExReq.mshrMissLatency::total    112624400                       # number of SoftPFExReq MSHR miss ticks (Tick)
system.cpu.dcache.SoftPFExReq.mshrMissRate::cpu.data     0.548415                       # mshr miss rate for SoftPFExReq accesses (Ratio)
system.cpu.dcache.SoftPFExReq.mshrMissRate::total     0.548415                       # mshr miss rate for SoftPFExReq accesses (Ratio)
system.cpu.dcache.SoftPFExReq.avgMshrMissLatency::cpu.data 59716.012725                       # average SoftPFExReq mshr miss latency ((Tick/Count))
system.cpu.dcache.SoftPFExReq.avgMshrMissLatency::total 59716.012725                       # average SoftPFExReq mshr miss latency ((Tick/Count))
system.cpu.dcache.SoftPFReq.misses::cpu.data          375                       # number of SoftPFReq misses (Count)
system.cpu.dcache.SoftPFReq.misses::total          375                       # number of SoftPFReq misses (Count)
system.cpu.dcache.SoftPFReq.accesses::cpu.data          375                       # number of SoftPFReq accesses(hits+misses) (Count)
system.cpu.dcache.SoftPFReq.accesses::total          375                       # number of SoftPFReq accesses(hits+misses) (Count)
system.cpu.dcache.SoftPFReq.missRate::cpu.data            1                       # miss rate for SoftPFReq accesses (Ratio)
system.cpu.dcache.SoftPFReq.missRate::total            1                       # miss rate for SoftPFReq accesses (Ratio)
system.cpu.dcache.SoftPFReq.mshrMisses::cpu.data          375                       # number of SoftPFReq MSHR misses (Count)
system.cpu.dcache.SoftPFReq.mshrMisses::total          375                       # number of SoftPFReq MSHR misses (Count)
system.cpu.dcache.SoftPFReq.mshrMissLatency::cpu.data     22480400                       # number of SoftPFReq MSHR miss ticks (Tick)
system.cpu.dcache.SoftPFReq.mshrMissLatency::total     22480400                       # number of SoftPFReq MSHR miss ticks (Tick)
system.cpu.dcache.SoftPFReq.mshrMissRate::cpu.data            1                       # mshr miss rate for SoftPFReq accesses (Ratio)
system.cpu.dcache.SoftPFReq.mshrMissRate::total            1                       # mshr miss rate for SoftPFReq accesses (Ratio)
system.cpu.dcache.SoftPFReq.avgMshrMissLatency::cpu.data 59947.733333                       # average SoftPFReq mshr miss latency ((Tick/Count))
system.cpu.dcache.SoftPFReq.avgMshrMissLatency::total 59947.733333                       # average SoftPFReq mshr miss latency ((Tick/Count))
system.cpu.dcache.StoreCondReq.hits::cpu.data         2785                       # number of StoreCondReq hits (Count)
system.cpu.dcache.StoreCondReq.hits::total         2785                       # number of StoreCondReq hits (Count)
system.cpu.dcache.StoreCondReq.hitsAtPfAlloc::cpu.data           24                       # number of StoreCondReq hits (Count)
system.cpu.dcache.StoreCondReq.hitsAtPfAlloc::total           24                       # number of StoreCondReq hits (Count)
system.cpu.dcache.StoreCondReq.accesses::cpu.data         2785                       # number of StoreCondReq accesses(hits+misses) (Count)
system.cpu.dcache.StoreCondReq.accesses::total         2785                       # number of StoreCondReq accesses(hits+misses) (Count)
system.cpu.dcache.WriteReq.hits::cpu.data       280602                       # number of WriteReq hits (Count)
system.cpu.dcache.WriteReq.hits::total         280602                       # number of WriteReq hits (Count)
system.cpu.dcache.WriteReq.hitsAtPf::cpu.data            2                       # number of WriteReq hits (Count)
system.cpu.dcache.WriteReq.hitsAtPf::total            2                       # number of WriteReq hits (Count)
system.cpu.dcache.WriteReq.hitsAtPfAlloc::cpu.data           16                       # number of WriteReq hits (Count)
system.cpu.dcache.WriteReq.hitsAtPfAlloc::total           16                       # number of WriteReq hits (Count)
system.cpu.dcache.WriteReq.misses::cpu.data        43416                       # number of WriteReq misses (Count)
system.cpu.dcache.WriteReq.misses::total        43416                       # number of WriteReq misses (Count)
system.cpu.dcache.WriteReq.missLatency::cpu.data   2320871699                       # number of WriteReq miss ticks (Tick)
system.cpu.dcache.WriteReq.missLatency::total   2320871699                       # number of WriteReq miss ticks (Tick)
system.cpu.dcache.WriteReq.accesses::cpu.data       324018                       # number of WriteReq accesses(hits+misses) (Count)
system.cpu.dcache.WriteReq.accesses::total       324018                       # number of WriteReq accesses(hits+misses) (Count)
system.cpu.dcache.WriteReq.missRate::cpu.data     0.133993                       # miss rate for WriteReq accesses (Ratio)
system.cpu.dcache.WriteReq.missRate::total     0.133993                       # miss rate for WriteReq accesses (Ratio)
system.cpu.dcache.WriteReq.avgMissLatency::cpu.data 53456.598927                       # average WriteReq miss latency ((Tick/Count))
system.cpu.dcache.WriteReq.avgMissLatency::total 53456.598927                       # average WriteReq miss latency ((Tick/Count))
system.cpu.dcache.WriteReq.mshrHits::cpu.data        33981                       # number of WriteReq MSHR hits (Count)
system.cpu.dcache.WriteReq.mshrHits::total        33981                       # number of WriteReq MSHR hits (Count)
system.cpu.dcache.WriteReq.mshrHitsAtPf::8           14                       # number of WriteReq MSHR hits at pfMSHR (Count)
system.cpu.dcache.WriteReq.mshrHitsAtPf::total           14                       # number of WriteReq MSHR hits at pfMSHR (Count)
system.cpu.dcache.WriteReq.mshrMisses::cpu.data         9435                       # number of WriteReq MSHR misses (Count)
system.cpu.dcache.WriteReq.mshrMisses::total         9435                       # number of WriteReq MSHR misses (Count)
system.cpu.dcache.WriteReq.mshrUncacheable::cpu.data          375                       # number of WriteReq MSHR uncacheable (Count)
system.cpu.dcache.WriteReq.mshrUncacheable::total          375                       # number of WriteReq MSHR uncacheable (Count)
system.cpu.dcache.WriteReq.mshrMissLatency::cpu.data    556262499                       # number of WriteReq MSHR miss ticks (Tick)
system.cpu.dcache.WriteReq.mshrMissLatency::total    556262499                       # number of WriteReq MSHR miss ticks (Tick)
system.cpu.dcache.WriteReq.mshrMissRate::cpu.data     0.029119                       # mshr miss rate for WriteReq accesses (Ratio)
system.cpu.dcache.WriteReq.mshrMissRate::total     0.029119                       # mshr miss rate for WriteReq accesses (Ratio)
system.cpu.dcache.WriteReq.avgMshrMissLatency::cpu.data 58957.339587                       # average WriteReq mshr miss latency ((Tick/Count))
system.cpu.dcache.WriteReq.avgMshrMissLatency::total 58957.339587                       # average WriteReq mshr miss latency ((Tick/Count))
system.cpu.dcache.power_state.pwrStateResidencyTicks::UNDEFINED 3487150842000                       # Cumulative time (in ticks) in various power states (Tick)
system.cpu.dcache.prefetcher.demandMshrMisses     28601942                       # demands not covered by prefetchs (Count)
system.cpu.dcache.prefetcher.demandMshrMissesPerPC::401050         5003                       # demands not covered by prefetchs (Count)
system.cpu.dcache.prefetcher.demandMshrMissesPerPC::401088       264345                       # demands not covered by prefetchs (Count)
system.cpu.dcache.prefetcher.demandMshrMissesPerPC::401058     22467162                       # demands not covered by prefetchs (Count)
system.cpu.dcache.prefetcher.demandMshrMissesPerPC::40107c      5492707                       # demands not covered by prefetchs (Count)
system.cpu.dcache.prefetcher.demandMshrMissesPerPC::total     28229217                       # demands not covered by prefetchs (Count)
system.cpu.dcache.prefetcher.demandMshrHitsAtPf           17                       # demands hit in mshr allocated by prefetchs (Count)
system.cpu.dcache.prefetcher.demandMshrHitsAtPfPerPfPC::401088            1                       # demands hit in mshr allocated by prefetchs (Count)
system.cpu.dcache.prefetcher.demandMshrHitsAtPfPerPfPC::total            1                       # demands hit in mshr allocated by prefetchs (Count)
system.cpu.dcache.prefetcher.pfIssued         7908555                       # number of hwpf issued (Count)
system.cpu.dcache.prefetcher.pfIssuedPerPfPC::401050      2519198                       # number of hwpf issued (Count)
system.cpu.dcache.prefetcher.pfIssuedPerPfPC::401088      5384961                       # number of hwpf issued (Count)
system.cpu.dcache.prefetcher.pfIssuedPerPfPC::total      7904159                       # number of hwpf issued (Count)
system.cpu.dcache.prefetcher.pfUnused             430                       # number of HardPF blocks evicted w/o reference (Count)
system.cpu.dcache.prefetcher.pfUnusedPerPfPC::401050            1                       # number of HardPF blocks evicted w/o reference (Count)
[...]
system.membus.pktCount_system.l2.mem_side_port::system.realview.gic.pio         2286                       # Packet count per connected requestor and responder (Count)
system.membus.pktCount_system.l2.mem_side_port::system.mem_ctrls.port     94404299                       # Packet count per connected requestor and responder (Count)
system.membus.pktCount_system.l2.mem_side_port::total     94408237                       # Packet count per connected requestor and responder (Count)
system.membus.pktCount::total                94408237                       # Packet count per connected requestor and responder (Count)
system.membus.pktSize_system.l2.mem_side_port::system.bridge.cpu_side_port         2440                       # Cumulative packet size per connected requestor and responder (Byte)
system.membus.pktSize_system.l2.mem_side_port::system.realview.gic.pio         4572                       # Cumulative packet size per connected requestor and responder (Byte)
system.membus.pktSize_system.l2.mem_side_port::system.mem_ctrls.port   2022292992                       # Cumulative packet size per connected requestor and responder (Byte)
system.membus.pktSize_system.l2.mem_side_port::total   2022300004                       # Cumulative packet size per connected requestor and responder (Byte)
system.membus.pktSize::total               2022300004                       # Cumulative packet size per connected requestor and responder (Byte)
system.membus.snoops                                0                       # Total snoops (Count)
system.membus.snoopTraffic                          0                       # Total snoop traffic (Byte)
system.membus.snoopFanout::samples           37884171                       # Request fanout histogram (Count)
system.membus.snoopFanout::mean                     0                       # Request fanout histogram (Count)
system.membus.snoopFanout::stdev                    0                       # Request fanout histogram (Count)
system.membus.snoopFanout::underflows               0      0.00%      0.00% # Request fanout histogram (Count)
system.membus.snoopFanout::0                 37884171    100.00%    100.00% # Request fanout histogram (Count)
system.membus.snoopFanout::1                        0      0.00%    100.00% # Request fanout histogram (Count)
system.membus.snoopFanout::2                        0      0.00%    100.00% # Request fanout histogram (Count)
system.membus.snoopFanout::overflows                0      0.00%    100.00% # Request fanout histogram (Count)
system.membus.snoopFanout::min_value                0                       # Request fanout histogram (Count)
system.membus.snoopFanout::max_value                0                       # Request fanout histogram (Count)
system.membus.snoopFanout::total             37884171                       # Request fanout histogram (Count)
system.membus.badaddr_responder.power_state.pwrStateResidencyTicks::UNDEFINED 3509957562000                       # Cumulative time (in ticks) in various power states (Tick)
system.membus.power_state.pwrStateResidencyTicks::UNDEFINED 3509957562000                       # Cumulative time (in ticks) in various power states (Tick)
system.membus.reqLayer0.occupancy             1252400                       # Layer occupancy (ticks) (Tick)
system.membus.reqLayer0.utilization               0.0                       # Layer utilization (Ratio)
system.membus.reqLayer12.occupancy            1833400                       # Layer occupancy (ticks) (Tick)
system.membus.reqLayer12.utilization              0.0                       # Layer utilization (Ratio)
system.membus.reqLayer15.occupancy        96080065910                       # Layer occupancy (ticks) (Tick)
system.membus.reqLayer15.utilization              0.1                       # Layer utilization (Ratio)
system.membus.respLayer2.occupancy       157335192000                       # Layer occupancy (ticks) (Tick)
system.membus.respLayer2.utilization              0.1                       # Layer utilization (Ratio)
system.membus.snoop_filter.totRequests       69352498                       # Total number of requests made to the snoop filter. (Count)
system.membus.snoop_filter.hitSingleRequests     31470943                       # Number of requests hitting in the snoop filter with a single holder of the requested data. (Count)
system.membus.snoop_filter.hitMultiRequests            0                       # Number of requests hitting in the snoop filter with multiple (>1) holders of the requested data. (Count)
system.membus.snoop_filter.totSnoops                0                       # Total number of snoops made to the snoop filter. (Count)
system.membus.snoop_filter.hitSingleSnoops            0                       # Number of snoops hitting in the snoop filter with a single holder of the requested data. (Count)
system.membus.snoop_filter.hitMultiSnoops            0                       # Number of snoops hitting in the snoop filter with multiple (>1) holders of the requested data. (Count)
system.pci_ide.disks.IdeDisk.dmaReadFullPages            0                       # Number of full page size DMA reads (not PRD). (Count)
system.pci_ide.disks.IdeDisk.dmaReadBytes            0                       # Number of bytes transfered via DMA reads (not PRD). (Byte)
system.pci_ide.disks.IdeDisk.dmaReadTxs             0                       # Number of DMA read transactions (not PRD). (Count)
system.pci_ide.disks.IdeDisk.dmaWriteFullPages            0                       # Number of full page size DMA writes. (Count)
system.pci_ide.disks.IdeDisk.dmaWriteBytes            0                       # Number of bytes transfered via DMA writes. (Byte)
system.pci_ide.disks.IdeDisk.dmaWriteTxs            0                       # Number of DMA write transactions. (Count)
system.pci_ide.power_state.pwrStateResidencyTicks::UNDEFINED 3509957562000                       # Cumulative time (in ticks) in various power states (Tick)
system.realview.bootmem.power_state.pwrStateResidencyTicks::UNDEFINED 3509957562000                       # Cumulative time (in ticks) in various power states (Tick)
system.realview.clock24MHz.clock                41667                       # Clock period in ticks (Tick)
system.realview.clock32KHz.clock             31250000                       # Clock period in ticks (Tick)
system.realview.dcc.osc_cpu.clock               16667                       # Clock period in ticks (Tick)
system.realview.dcc.osc_ddr.clock               25000                       # Clock period in ticks (Tick)
system.realview.dcc.osc_hsbm.clock              25000                       # Clock period in ticks (Tick)
system.realview.dcc.osc_pxl.clock               42105                       # Clock period in ticks (Tick)
system.realview.dcc.osc_smb.clock               20000                       # Clock period in ticks (Tick)
system.realview.dcc.osc_sys.clock               16667                       # Clock period in ticks (Tick)
system.realview.el2_watchdog.power_state.pwrStateResidencyTicks::UNDEFINED 3509957562000                       # Cumulative time (in ticks) in various power states (Tick)
system.realview.energy_ctrl.power_state.pwrStateResidencyTicks::UNDEFINED 3509957562000                       # Cumulative time (in ticks) in various power states (Tick)
system.realview.flash0.power_state.pwrStateResidencyTicks::UNDEFINED 3509957562000                       # Cumulative time (in ticks) in various power states (Tick)
system.realview.flash1.power_state.pwrStateResidencyTicks::UNDEFINED 3509957562000                       # Cumulative time (in ticks) in various power states (Tick)
system.realview.generic_timer_mem.frames0.power_state.pwrStateResidencyTicks::UNDEFINED 3509957562000                       # Cumulative time (in ticks) in various power states (Tick)
system.realview.generic_timer_mem.frames1.power_state.pwrStateResidencyTicks::UNDEFINED 3509957562000                       # Cumulative time (in ticks) in various power states (Tick)
system.realview.generic_timer_mem.power_state.pwrStateResidencyTicks::UNDEFINED 3509957562000                       # Cumulative time (in ticks) in various power states (Tick)
system.realview.gic.power_state.pwrStateResidencyTicks::UNDEFINED 3509957562000                       # Cumulative time (in ticks) in various power states (Tick)
system.realview.gicv2m.power_state.pwrStateResidencyTicks::UNDEFINED 3509957562000                       # Cumulative time (in ticks) in various power states (Tick)
system.realview.io_voltage.voltage           3.300000                       # Voltage in Volts (Volt)
system.realview.kmi0.power_state.pwrStateResidencyTicks::UNDEFINED 3509957562000                       # Cumulative time (in ticks) in various power states (Tick)
system.realview.kmi1.power_state.pwrStateResidencyTicks::UNDEFINED 3509957562000                       # Cumulative time (in ticks) in various power states (Tick)
system.realview.mcc.osc_clcd.clock              42105                       # Clock period in ticks (Tick)
system.realview.mcc.osc_mcc.clock               20000                       # Clock period in ticks (Tick)
system.realview.mcc.osc_peripheral.clock        41667                       # Clock period in ticks (Tick)
system.realview.mcc.osc_system_bus.clock        41667                       # Clock period in ticks (Tick)
system.realview.non_trusted_sram.power_state.pwrStateResidencyTicks::UNDEFINED 3509957562000                       # Cumulative time (in ticks) in various power states (Tick)
system.realview.pci_host.power_state.pwrStateResidencyTicks::UNDEFINED 3509957562000                       # Cumulative time (in ticks) in various power states (Tick)
system.realview.pwr_ctrl.power_state.pwrStateResidencyTicks::UNDEFINED 3509957562000                       # Cumulative time (in ticks) in various power states (Tick)
system.realview.realview_io.power_state.pwrStateResidencyTicks::UNDEFINED 3509957562000                       # Cumulative time (in ticks) in various power states (Tick)
system.realview.rtc.power_state.pwrStateResidencyTicks::UNDEFINED 3509957562000                       # Cumulative time (in ticks) in various power states (Tick)
system.realview.system_watchdog.power_state.pwrStateResidencyTicks::UNDEFINED 3509957562000                       # Cumulative time (in ticks) in various power states (Tick)
system.realview.trusted_dram.power_state.pwrStateResidencyTicks::UNDEFINED 3509957562000                       # Cumulative time (in ticks) in various power states (Tick)
system.realview.trusted_sram.power_state.pwrStateResidencyTicks::UNDEFINED 3509957562000                       # Cumulative time (in ticks) in various power states (Tick)
system.realview.trusted_watchdog.power_state.pwrStateResidencyTicks::UNDEFINED 3509957562000                       # Cumulative time (in ticks) in various power states (Tick)
system.realview.uart0.power_state.pwrStateResidencyTicks::UNDEFINED 3509957562000                       # Cumulative time (in ticks) in various power states (Tick)
system.realview.uart1.power_state.pwrStateResidencyTicks::UNDEFINED 3509957562000                       # Cumulative time (in ticks) in various power states (Tick)
system.realview.uart2.power_state.pwrStateResidencyTicks::UNDEFINED 3509957562000                       # Cumulative time (in ticks) in various power states (Tick)
system.realview.uart3.power_state.pwrStateResidencyTicks::UNDEFINED 3509957562000                       # Cumulative time (in ticks) in various power states (Tick)
system.realview.vgic.power_state.pwrStateResidencyTicks::UNDEFINED 3509957562000                       # Cumulative time (in ticks) in various power states (Tick)
system.realview.vio0.power_state.pwrStateResidencyTicks::UNDEFINED 3509957562000                       # Cumulative time (in ticks) in various power states (Tick)
system.realview.vio1.power_state.pwrStateResidencyTicks::UNDEFINED 3509957562000                       # Cumulative time (in ticks) in various power states (Tick)
system.realview.vram.power_state.pwrStateResidencyTicks::UNDEFINED 3509957562000                       # Cumulative time (in ticks) in various power states (Tick)
system.realview.watchdog.power_state.pwrStateResidencyTicks::UNDEFINED 3509957562000                       # Cumulative time (in ticks) in various power states (Tick)
system.tol2bus.transDist::ReadReq             5124327                       # Transaction distribution (Count)
system.tol2bus.transDist::ReadResp           36771976                       # Transaction distribution (Count)
system.tol2bus.transDist::WriteReq                611                       # Transaction distribution (Count)
system.tol2bus.transDist::WriteResp               611                       # Transaction distribution (Count)
system.tol2bus.transDist::WritebackDirty       343245                       # Transaction distribution (Count)
system.tol2bus.transDist::WritebackClean     31462441                       # Transaction distribution (Count)
system.tol2bus.transDist::CleanEvict         31822261                       # Transaction distribution (Count)
system.tol2bus.transDist::UpgradeReq               31                       # Transaction distribution (Count)
system.tol2bus.transDist::UpgradeResp              31                       # Transaction distribution (Count)
system.tol2bus.transDist::ReadExReq             23215                       # Transaction distribution (Count)
system.tol2bus.transDist::ReadExResp            23215                       # Transaction distribution (Count)
system.tol2bus.transDist::ReadCleanReq          16350                       # Transaction distribution (Count)
system.tol2bus.transDist::ReadSharedReq      31631298                       # Transaction distribution (Count)
system.tol2bus.transDist::CleanSharedReq          192                       # Transaction distribution (Count)
system.tol2bus.transDist::InvalidateReq          2867                       # Transaction distribution (Count)
system.tol2bus.transDist::InvalidateResp         2867                       # Transaction distribution (Count)
system.tol2bus.pktCount_system.cpu.icache.mem_side_port::system.l2.cpu_side_port        49052                       # Packet count per connected requestor and responder (Count)
system.tol2bus.pktCount_system.cpu.dcache.mem_side_port::system.l2.cpu_side_port     94976332                       # Packet count per connected requestor and responder (Count)
system.tol2bus.pktCount_system.cpu.mmu.itb_walker.port::system.l2.cpu_side_port         3211                       # Packet count per connected requestor and responder (Count)
system.tol2bus.pktCount_system.cpu.mmu.dtb_walker.port::system.l2.cpu_side_port     10242393                       # Packet count per connected requestor and responder (Count)
system.tol2bus.pktCount::total              105270988                       # Packet count per connected requestor and responder (Count)
system.tol2bus.pktSize_system.cpu.icache.mem_side_port::system.l2.cpu_side_port      2092928                       # Cumulative packet size per connected requestor and responder (Byte)
system.tol2bus.pktSize_system.cpu.dcache.mem_side_port::system.l2.cpu_side_port   4051968164                       # Cumulative packet size per connected requestor and responder (Byte)
system.tol2bus.pktSize_system.cpu.mmu.itb_walker.port::system.l2.cpu_side_port        12416                       # Cumulative packet size per connected requestor and responder (Byte)
system.tol2bus.pktSize_system.cpu.mmu.dtb_walker.port::system.l2.cpu_side_port     40968664                       # Cumulative packet size per connected requestor and responder (Byte)
system.tol2bus.pktSize::total              4095042172                       # Cumulative packet size per connected requestor and responder (Byte)
system.tol2bus.snoops                        31954550                       # Total snoops (Count)
system.tol2bus.snoopTraffic                   8447792                       # Total snoop traffic (Byte)
system.tol2bus.snoopFanout::samples          68753108                       # Request fanout histogram (Count)
system.tol2bus.snoopFanout::mean             0.007074                       # Request fanout histogram (Count)
system.tol2bus.snoopFanout::stdev            0.083816                       # Request fanout histogram (Count)
system.tol2bus.snoopFanout::underflows              0      0.00%      0.00% # Request fanout histogram (Count)
system.tol2bus.snoopFanout::0                68266774     99.29%     99.29% # Request fanout histogram (Count)
system.tol2bus.snoopFanout::1                  486299      0.71%    100.00% # Request fanout histogram (Count)
system.tol2bus.snoopFanout::2                      35      0.00%    100.00% # Request fanout histogram (Count)
system.tol2bus.snoopFanout::overflows               0      0.00%    100.00% # Request fanout histogram (Count)
system.tol2bus.snoopFanout::min_value               0                       # Request fanout histogram (Count)
system.tol2bus.snoopFanout::max_value               2                       # Request fanout histogram (Count)
system.tol2bus.snoopFanout::total            68753108                       # Request fanout histogram (Count)
system.tol2bus.power_state.pwrStateResidencyTicks::UNDEFINED 3509957562000                       # Cumulative time (in ticks) in various power states (Tick)
system.tol2bus.reqLayer0.occupancy        55839896595                       # Layer occupancy (ticks) (Tick)
system.tol2bus.reqLayer0.utilization              0.0                       # Layer utilization (Ratio)
system.tol2bus.respLayer0.occupancy          19625589                       # Layer occupancy (ticks) (Tick)
system.tol2bus.respLayer0.utilization             0.0                       # Layer utilization (Ratio)
system.tol2bus.respLayer1.occupancy       37988188372                       # Layer occupancy (ticks) (Tick)
system.tol2bus.respLayer1.utilization             0.0                       # Layer utilization (Ratio)
system.tol2bus.respLayer2.occupancy           1330096                       # Layer occupancy (ticks) (Tick)
system.tol2bus.respLayer2.utilization             0.0                       # Layer utilization (Ratio)
system.tol2bus.respLayer3.occupancy        4097051803                       # Layer occupancy (ticks) (Tick)
system.tol2bus.respLayer3.utilization             0.0                       # Layer utilization (Ratio)
system.tol2bus.snoop_filter.totRequests      63348074                       # Total number of requests made to the snoop filter. (Count)
system.tol2bus.snoop_filter.hitSingleRequests     31674151                       # Number of requests hitting in the snoop filter with a single holder of the requested data. (Count)
system.tol2bus.snoop_filter.hitMultiRequests          657                       # Number of requests hitting in the snoop filter with multiple (>1) holders of the requested data. (Count)
system.tol2bus.snoop_filter.totSnoops          485288                       # Total number of snoops made to the snoop filter. (Count)
system.tol2bus.snoop_filter.hitSingleSnoops       485253                       # Number of snoops hitting in the snoop filter with a single holder of the requested data. (Count)
system.tol2bus.snoop_filter.hitMultiSnoops           35                       # Number of snoops hitting in the snoop filter with multiple (>1) holders of the requested data. (Count)
system.voltage_domain.voltage                       1                       # Voltage in Volts (Volt)
system.workload.inst.arm                            0                       # number of arm instructions executed (Count)
system.workload.inst.quiesce                        0                       # number of quiesce instructions executed (Count)

---------- End Simulation Statistics   ----------
