
---------- Begin Simulation Statistics ----------
simSeconds                                   5.511455                       # Number of seconds simulated (Second)
simTicks                                 5511454542000                       # Number of ticks simulated (Tick)
finalTick                                8997884000800                       # Number of ticks from beginning of simulation (restored from checkpoints and never reset) (Tick)
simFreq                                  1000000000000                       # The number of ticks per simulated second ((Tick/Second))
hostSeconds                                  29899.61                       # Real time elapsed on the host (Second)
hostTickRate                                184331981                       # The number of ticks simulated per host second (ticks/s) ((Tick/Second))
hostMemory                                    9141088                       # Number of bytes of host memory used (Byte)
simInsts                                   3135944890                       # Number of instructions simulated (Count)
simOps                                     3459426053                       # Number of ops (including micro ops) simulated (Count)
hostInstRate                                   104882                       # Simulator instruction rate (inst/s) ((Count/Second))
hostOpRate                                     115701                       # Simulator op (including micro ops) rate (op/s) ((Count/Second))
system.bridge.power_state.pwrStateResidencyTicks::UNDEFINED 8997884000800                       # Cumulative time (in ticks) in various power states (Tick)
system.clk_domain.clock                          1000                       # Clock period in ticks (Tick)
system.cpu.numCycles                      13778636355                       # Number of cpu cycles simulated (Cycle)
system.cpu.numWorkItemsStarted                      0                       # Number of work items this cpu started (Count)
system.cpu.numWorkItemsCompleted                    0                       # Number of work items this cpu completed (Count)
system.cpu.instsAdded                      1005757597                       # Number of instructions added to the IQ (excludes non-spec) (Count)
system.cpu.nonSpecInstsAdded                   396523                       # Number of non-speculative instructions added to the IQ (Count)
system.cpu.instsIssued                     1016901428                       # Number of instructions issued (Count)
system.cpu.squashedInstsIssued               19075372                       # Number of squashed instructions issued (Count)
system.cpu.squashedInstsExamined            229032985                       # Number of squashed instructions iterated over during squash; mainly for profiling (Count)
system.cpu.squashedOperandsExamined         402418029                       # Number of squashed operands that are examined and possibly removed from graph (Count)
system.cpu.squashedNonSpecRemoved                7447                       # Number of squashed non-spec instructions that were removed (Count)
system.cpu.numIssuedDist::samples         13777600141                       # Number of insts issued each cycle (Count)
system.cpu.numIssuedDist::mean               0.073808                       # Number of insts issued each cycle (Count)
system.cpu.numIssuedDist::stdev              0.349227                       # Number of insts issued each cycle (Count)
system.cpu.numIssuedDist::underflows                0      0.00%      0.00% # Number of insts issued each cycle (Count)
system.cpu.numIssuedDist::0               13039061823     94.64%     94.64% # Number of insts issued each cycle (Count)
system.cpu.numIssuedDist::1                 550733803      4.00%     98.64% # Number of insts issued each cycle (Count)
system.cpu.numIssuedDist::2                  97554063      0.71%     99.34% # Number of insts issued each cycle (Count)
system.cpu.numIssuedDist::3                  89942316      0.65%    100.00% # Number of insts issued each cycle (Count)
system.cpu.numIssuedDist::4                    308129      0.00%    100.00% # Number of insts issued each cycle (Count)
system.cpu.numIssuedDist::5                         7      0.00%    100.00% # Number of insts issued each cycle (Count)
system.cpu.numIssuedDist::6                         0      0.00%    100.00% # Number of insts issued each cycle (Count)
system.cpu.numIssuedDist::7                         0      0.00%    100.00% # Number of insts issued each cycle (Count)
system.cpu.numIssuedDist::8                         0      0.00%    100.00% # Number of insts issued each cycle (Count)
system.cpu.numIssuedDist::overflows                 0      0.00%    100.00% # Number of insts issued each cycle (Count)
system.cpu.numIssuedDist::min_value                 0                       # Number of insts issued each cycle (Count)
system.cpu.numIssuedDist::max_value                 5                       # Number of insts issued each cycle (Count)
system.cpu.numIssuedDist::total           13777600141                       # Number of insts issued each cycle (Count)
system.cpu.statFuBusy::No_OpClass                   0      0.00%      0.00% # attempts to use FU when none available (Count)
system.cpu.statFuBusy::IntAlu                48733148     14.21%     14.21% # attempts to use FU when none available (Count)
system.cpu.statFuBusy::IntMult                  34093      0.01%     14.22% # attempts to use FU when none available (Count)
system.cpu.statFuBusy::IntDiv                   39290      0.01%     14.23% # attempts to use FU when none available (Count)
system.cpu.statFuBusy::FloatAdd                     0      0.00%     14.23% # attempts to use FU when none available (Count)
system.cpu.statFuBusy::FloatCmp                     0      0.00%     14.23% # attempts to use FU when none available (Count)
system.cpu.statFuBusy::FloatCvt                     0      0.00%     14.23% # attempts to use FU when none available (Count)
system.cpu.statFuBusy::FloatMult                    0      0.00%     14.23% # attempts to use FU when none available (Count)
system.cpu.statFuBusy::FloatMultAcc                 0      0.00%     14.23% # attempts to use FU when none available (Count)
system.cpu.statFuBusy::FloatDiv                     0      0.00%     14.23% # attempts to use FU when none available (Count)
system.cpu.statFuBusy::FloatMisc                    0      0.00%     14.23% # attempts to use FU when none available (Count)
system.cpu.statFuBusy::FloatSqrt                    0      0.00%     14.23% # attempts to use FU when none available (Count)
system.cpu.statFuBusy::SimdAdd                      0      0.00%     14.23% # attempts to use FU when none available (Count)
system.cpu.statFuBusy::SimdAddAcc                   0      0.00%     14.23% # attempts to use FU when none available (Count)
system.cpu.statFuBusy::SimdAlu                      0      0.00%     14.23% # attempts to use FU when none available (Count)
system.cpu.statFuBusy::SimdCmp                      0      0.00%     14.23% # attempts to use FU when none available (Count)
system.cpu.statFuBusy::SimdCvt                      0      0.00%     14.23% # attempts to use FU when none available (Count)
system.cpu.statFuBusy::SimdMisc                     0      0.00%     14.23% # attempts to use FU when none available (Count)
system.cpu.statFuBusy::SimdMult                     0      0.00%     14.23% # attempts to use FU when none available (Count)
system.cpu.statFuBusy::SimdMultAcc                  0      0.00%     14.23% # attempts to use FU when none available (Count)
system.cpu.statFuBusy::SimdShift                    0      0.00%     14.23% # attempts to use FU when none available (Count)
system.cpu.statFuBusy::SimdShiftAcc                 0      0.00%     14.23% # attempts to use FU when none available (Count)
system.cpu.statFuBusy::SimdDiv                      0      0.00%     14.23% # attempts to use FU when none available (Count)
system.cpu.statFuBusy::SimdSqrt                     0      0.00%     14.23% # attempts to use FU when none available (Count)
system.cpu.statFuBusy::SimdFloatAdd                 0      0.00%     14.23% # attempts to use FU when none available (Count)
system.cpu.statFuBusy::SimdFloatAlu                 0      0.00%     14.23% # attempts to use FU when none available (Count)
system.cpu.statFuBusy::SimdFloatCmp                 0      0.00%     14.23% # attempts to use FU when none available (Count)
system.cpu.statFuBusy::SimdFloatCvt                 0      0.00%     14.23% # attempts to use FU when none available (Count)
system.cpu.statFuBusy::SimdFloatDiv                 0      0.00%     14.23% # attempts to use FU when none available (Count)
system.cpu.statFuBusy::SimdFloatMisc                0      0.00%     14.23% # attempts to use FU when none available (Count)
system.cpu.statFuBusy::SimdFloatMult                0      0.00%     14.23% # attempts to use FU when none available (Count)
system.cpu.statFuBusy::SimdFloatMultAcc             0      0.00%     14.23% # attempts to use FU when none available (Count)
system.cpu.statFuBusy::SimdFloatSqrt                0      0.00%     14.23% # attempts to use FU when none available (Count)
system.cpu.statFuBusy::SimdReduceAdd                0      0.00%     14.23% # attempts to use FU when none available (Count)
system.cpu.statFuBusy::SimdReduceAlu                0      0.00%     14.23% # attempts to use FU when none available (Count)
system.cpu.statFuBusy::SimdReduceCmp                0      0.00%     14.23% # attempts to use FU when none available (Count)
system.cpu.statFuBusy::SimdFloatReduceAdd            0      0.00%     14.23% # attempts to use FU when none available (Count)
system.cpu.statFuBusy::SimdFloatReduceCmp            0      0.00%     14.23% # attempts to use FU when none available (Count)
system.cpu.statFuBusy::SimdAes                      0      0.00%     14.23% # attempts to use FU when none available (Count)
system.cpu.statFuBusy::SimdAesMix                   0      0.00%     14.23% # attempts to use FU when none available (Count)
system.cpu.statFuBusy::SimdSha1Hash                 0      0.00%     14.23% # attempts to use FU when none available (Count)
system.cpu.statFuBusy::SimdSha1Hash2                0      0.00%     14.23% # attempts to use FU when none available (Count)
system.cpu.statFuBusy::SimdSha256Hash               0      0.00%     14.23% # attempts to use FU when none available (Count)
system.cpu.statFuBusy::SimdSha256Hash2              0      0.00%     14.23% # attempts to use FU when none available (Count)
system.cpu.statFuBusy::SimdShaSigma2                0      0.00%     14.23% # attempts to use FU when none available (Count)
system.cpu.statFuBusy::SimdShaSigma3                0      0.00%     14.23% # attempts to use FU when none available (Count)
system.cpu.statFuBusy::SimdPredAlu                  0      0.00%     14.23% # attempts to use FU when none available (Count)
system.cpu.statFuBusy::MemRead              291464257     84.99%     99.23% # attempts to use FU when none available (Count)
system.cpu.statFuBusy::MemWrite               2651428      0.77%    100.00% # attempts to use FU when none available (Count)
system.cpu.statFuBusy::FloatMemRead                 0      0.00%    100.00% # attempts to use FU when none available (Count)
system.cpu.statFuBusy::FloatMemWrite                0      0.00%    100.00% # attempts to use FU when none available (Count)
system.cpu.statFuBusy::IprAccess                    0      0.00%    100.00% # attempts to use FU when none available (Count)
system.cpu.statFuBusy::InstPrefetch                 0      0.00%    100.00% # attempts to use FU when none available (Count)
system.cpu.statIssuedInstType_0::No_OpClass         1399      0.00%      0.00% # Number of instructions issued per FU type, per thread (Count)
system.cpu.statIssuedInstType_0::IntAlu     498820383     49.05%     49.05% # Number of instructions issued per FU type, per thread (Count)
system.cpu.statIssuedInstType_0::IntMult        80337      0.01%     49.06% # Number of instructions issued per FU type, per thread (Count)
system.cpu.statIssuedInstType_0::IntDiv          8345      0.00%     49.06% # Number of instructions issued per FU type, per thread (Count)
system.cpu.statIssuedInstType_0::FloatAdd            0      0.00%     49.06% # Number of instructions issued per FU type, per thread (Count)
system.cpu.statIssuedInstType_0::FloatCmp            0      0.00%     49.06% # Number of instructions issued per FU type, per thread (Count)
system.cpu.statIssuedInstType_0::FloatCvt            0      0.00%     49.06% # Number of instructions issued per FU type, per thread (Count)
system.cpu.statIssuedInstType_0::FloatMult            0      0.00%     49.06% # Number of instructions issued per FU type, per thread (Count)
system.cpu.statIssuedInstType_0::FloatMultAcc            0      0.00%     49.06% # Number of instructions issued per FU type, per thread (Count)
system.cpu.statIssuedInstType_0::FloatDiv            0      0.00%     49.06% # Number of instructions issued per FU type, per thread (Count)
system.cpu.statIssuedInstType_0::FloatMisc            0      0.00%     49.06% # Number of instructions issued per FU type, per thread (Count)
system.cpu.statIssuedInstType_0::FloatSqrt            0      0.00%     49.06% # Number of instructions issued per FU type, per thread (Count)
system.cpu.statIssuedInstType_0::SimdAdd            0      0.00%     49.06% # Number of instructions issued per FU type, per thread (Count)
system.cpu.statIssuedInstType_0::SimdAddAcc            0      0.00%     49.06% # Number of instructions issued per FU type, per thread (Count)
system.cpu.statIssuedInstType_0::SimdAlu            0      0.00%     49.06% # Number of instructions issued per FU type, per thread (Count)
system.cpu.statIssuedInstType_0::SimdCmp            0      0.00%     49.06% # Number of instructions issued per FU type, per thread (Count)
system.cpu.statIssuedInstType_0::SimdCvt            0      0.00%     49.06% # Number of instructions issued per FU type, per thread (Count)
system.cpu.statIssuedInstType_0::SimdMisc            0      0.00%     49.06% # Number of instructions issued per FU type, per thread (Count)
system.cpu.statIssuedInstType_0::SimdMult            0      0.00%     49.06% # Number of instructions issued per FU type, per thread (Count)
system.cpu.statIssuedInstType_0::SimdMultAcc            0      0.00%     49.06% # Number of instructions issued per FU type, per thread (Count)
system.cpu.statIssuedInstType_0::SimdShift            0      0.00%     49.06% # Number of instructions issued per FU type, per thread (Count)
system.cpu.statIssuedInstType_0::SimdShiftAcc            0      0.00%     49.06% # Number of instructions issued per FU type, per thread (Count)
system.cpu.statIssuedInstType_0::SimdDiv            0      0.00%     49.06% # Number of instructions issued per FU type, per thread (Count)
system.cpu.statIssuedInstType_0::SimdSqrt            0      0.00%     49.06% # Number of instructions issued per FU type, per thread (Count)
system.cpu.statIssuedInstType_0::SimdFloatAdd            0      0.00%     49.06% # Number of instructions issued per FU type, per thread (Count)
system.cpu.statIssuedInstType_0::SimdFloatAlu            0      0.00%     49.06% # Number of instructions issued per FU type, per thread (Count)
system.cpu.statIssuedInstType_0::SimdFloatCmp            0      0.00%     49.06% # Number of instructions issued per FU type, per thread (Count)
system.cpu.statIssuedInstType_0::SimdFloatCvt            0      0.00%     49.06% # Number of instructions issued per FU type, per thread (Count)
system.cpu.statIssuedInstType_0::SimdFloatDiv            0      0.00%     49.06% # Number of instructions issued per FU type, per thread (Count)
system.cpu.statIssuedInstType_0::SimdFloatMisc            0      0.00%     49.06% # Number of instructions issued per FU type, per thread (Count)
system.cpu.statIssuedInstType_0::SimdFloatMult            0      0.00%     49.06% # Number of instructions issued per FU type, per thread (Count)
system.cpu.statIssuedInstType_0::SimdFloatMultAcc            0      0.00%     49.06% # Number of instructions issued per FU type, per thread (Count)
system.cpu.statIssuedInstType_0::SimdFloatSqrt            0      0.00%     49.06% # Number of instructions issued per FU type, per thread (Count)
system.cpu.statIssuedInstType_0::SimdReduceAdd            0      0.00%     49.06% # Number of instructions issued per FU type, per thread (Count)
system.cpu.statIssuedInstType_0::SimdReduceAlu            0      0.00%     49.06% # Number of instructions issued per FU type, per thread (Count)
system.cpu.statIssuedInstType_0::SimdReduceCmp            0      0.00%     49.06% # Number of instructions issued per FU type, per thread (Count)
system.cpu.statIssuedInstType_0::SimdFloatReduceAdd            0      0.00%     49.06% # Number of instructions issued per FU type, per thread (Count)
system.cpu.statIssuedInstType_0::SimdFloatReduceCmp            0      0.00%     49.06% # Number of instructions issued per FU type, per thread (Count)
system.cpu.statIssuedInstType_0::SimdAes            0      0.00%     49.06% # Number of instructions issued per FU type, per thread (Count)
system.cpu.statIssuedInstType_0::SimdAesMix            0      0.00%     49.06% # Number of instructions issued per FU type, per thread (Count)
system.cpu.statIssuedInstType_0::SimdSha1Hash            0      0.00%     49.06% # Number of instructions issued per FU type, per thread (Count)
system.cpu.statIssuedInstType_0::SimdSha1Hash2            0      0.00%     49.06% # Number of instructions issued per FU type, per thread (Count)
system.cpu.statIssuedInstType_0::SimdSha256Hash            0      0.00%     49.06% # Number of instructions issued per FU type, per thread (Count)
system.cpu.statIssuedInstType_0::SimdSha256Hash2            0      0.00%     49.06% # Number of instructions issued per FU type, per thread (Count)
system.cpu.statIssuedInstType_0::SimdShaSigma2            0      0.00%     49.06% # Number of instructions issued per FU type, per thread (Count)
system.cpu.statIssuedInstType_0::SimdShaSigma3            0      0.00%     49.06% # Number of instructions issued per FU type, per thread (Count)
system.cpu.statIssuedInstType_0::SimdPredAlu            0      0.00%     49.06% # Number of instructions issued per FU type, per thread (Count)
system.cpu.statIssuedInstType_0::MemRead    506597915     49.82%     98.88% # Number of instructions issued per FU type, per thread (Count)
system.cpu.statIssuedInstType_0::MemWrite     11393049      1.12%    100.00% # Number of instructions issued per FU type, per thread (Count)
system.cpu.statIssuedInstType_0::FloatMemRead            0      0.00%    100.00% # Number of instructions issued per FU type, per thread (Count)
system.cpu.statIssuedInstType_0::FloatMemWrite            0      0.00%    100.00% # Number of instructions issued per FU type, per thread (Count)
system.cpu.statIssuedInstType_0::IprAccess            0      0.00%    100.00% # Number of instructions issued per FU type, per thread (Count)
system.cpu.statIssuedInstType_0::InstPrefetch            0      0.00%    100.00% # Number of instructions issued per FU type, per thread (Count)
system.cpu.statIssuedInstType_0::total     1016901428                       # Number of instructions issued per FU type, per thread (Count)
system.cpu.issueRate                         0.073803                       # Inst issue rate ((Count/Cycle))
system.cpu.fuBusy                           342922216                       # FU busy when requested (Count)
system.cpu.fuBusyRate                        0.337223                       # FU busy rate (busy events/executed inst) ((Count/Count))
system.cpu.intInstQueueReads              16173398785                       # Number of integer instruction queue reads (Count)
system.cpu.intInstQueueWrites              1235189730                       # Number of integer instruction queue writes (Count)
system.cpu.intInstQueueWakeupAccesses       799612753                       # Number of integer instruction queue wakeup accesses (Count)
system.cpu.fpInstQueueReads                         0                       # Number of floating instruction queue reads (Count)
system.cpu.fpInstQueueWrites                        0                       # Number of floating instruction queue writes (Count)
system.cpu.fpInstQueueWakeupAccesses                0                       # Number of floating instruction queue wakeup accesses (Count)
system.cpu.vecInstQueueReads                     1800                       # Number of vector instruction queue reads (Count)
system.cpu.vecInstQueueWrites                     640                       # Number of vector instruction queue writes (Count)
system.cpu.vecInstQueueWakeupAccesses             640                       # Number of vector instruction queue wakeup accesses (Count)
system.cpu.intAluAccesses                  1359821085                       # Number of integer alu accesses (Count)
system.cpu.fpAluAccesses                            0                       # Number of floating point alu accesses (Count)
system.cpu.vecAluAccesses                        1160                       # Number of vector alu accesses (Count)
system.cpu.numInsts                         800802795                       # Number of executed instructions (Count)
system.cpu.numLoadInsts                     290761105                       # Number of load instructions executed (Count)
system.cpu.numSquashedInsts                  12614376                       # Number of squashed instructions skipped in execute (Count)
system.cpu.numSwp                                   0                       # Number of swp insts executed (Count)
system.cpu.numNop                             5273098                       # Number of nop insts executed (Count)
system.cpu.numRefs                          302022077                       # Number of memory reference insts executed (Count)
system.cpu.numBranches                      170941385                       # Number of branches executed (Count)
system.cpu.numStoreInsts                     11260972                       # Number of stores executed (Count)
system.cpu.numRate                           0.058119                       # Inst execution rate ((Count/Cycle))
system.cpu.timesIdled                           17941                       # Number of times that the entire CPU went into an idle state and unscheduled itself (Count)
system.cpu.idleCycles                         1036214                       # Total number of cycles that the CPU has spent unscheduled due to idling (Cycle)
system.cpu.committedInsts                   771033836                       # Number of Instructions Simulated (Count)
system.cpu.committedOps                     777121139                       # Number of Ops (including micro ops) Simulated (Count)
system.cpu.cpi                              17.870339                       # CPI: Cycles Per Instruction ((Cycle/Count))
system.cpu.totalCpi                         17.870339                       # CPI: Total CPI of All Threads ((Cycle/Count))
system.cpu.ipc                               0.055959                       # IPC: Instructions Per Cycle ((Count/Cycle))
system.cpu.totalIpc                          0.055959                       # IPC: Total IPC of All Threads ((Count/Cycle))
system.cpu.intRegfileReads                 1260557023                       # Number of integer regfile reads (Count)
system.cpu.intRegfileWrites                 455274006                       # Number of integer regfile writes (Count)
system.cpu.vecRegfileReads                        640                       # number of vector regfile reads (Count)
system.cpu.ccRegfileReads                   491194656                       # number of cc regfile reads (Count)
system.cpu.ccRegfileWrites                  494278287                       # number of cc regfile writes (Count)
system.cpu.miscRegfileReads               16241560539                       # number of misc regfile reads (Count)
system.cpu.miscRegfileWrites                   709167                       # number of misc regfile writes (Count)
system.cpu.MemDepUnit__0.insertedLoads      362807978                       # Number of loads inserted to the mem dependence unit. (Count)
system.cpu.MemDepUnit__0.insertedStores      11414553                       # Number of stores inserted to the mem dependence unit. (Count)
system.cpu.MemDepUnit__0.conflictingLoads       441053                       # Number of conflicting loads. (Count)
system.cpu.MemDepUnit__0.conflictingStores       301836                       # Number of conflicting stores. (Count)
system.cpu.MemDepUnit__1.insertedLoads              0                       # Number of loads inserted to the mem dependence unit. (Count)
system.cpu.MemDepUnit__1.insertedStores             0                       # Number of stores inserted to the mem dependence unit. (Count)
system.cpu.MemDepUnit__1.conflictingLoads            0                       # Number of conflicting loads. (Count)
system.cpu.MemDepUnit__1.conflictingStores            0                       # Number of conflicting stores. (Count)
system.cpu.MemDepUnit__2.insertedLoads              0                       # Number of loads inserted to the mem dependence unit. (Count)
system.cpu.MemDepUnit__2.insertedStores             0                       # Number of stores inserted to the mem dependence unit. (Count)
system.cpu.MemDepUnit__2.conflictingLoads            0                       # Number of conflicting loads. (Count)
system.cpu.MemDepUnit__2.conflictingStores            0                       # Number of conflicting stores. (Count)
system.cpu.MemDepUnit__3.insertedLoads              0                       # Number of loads inserted to the mem dependence unit. (Count)
system.cpu.MemDepUnit__3.insertedStores             0                       # Number of stores inserted to the mem dependence unit. (Count)
system.cpu.MemDepUnit__3.conflictingLoads            0                       # Number of conflicting loads. (Count)
system.cpu.MemDepUnit__3.conflictingStores            0                       # Number of conflicting stores. (Count)
system.cpu.branchPred.lookups               293275840                       # Number of BP lookups (Count)
system.cpu.branchPred.condPredicted         289568468                       # Number of conditional branches predicted (Count)
system.cpu.branchPred.condIncorrect           7878413                       # Number of conditional branches incorrect (Count)
system.cpu.branchPred.BTBLookups            108041628                       # Number of BTB lookups (Count)
system.cpu.branchPred.BTBUpdates              1567400                       # Number of BTB updates (Count)
system.cpu.branchPred.BTBHits               107669900                       # Number of BTB hits (Count)
system.cpu.branchPred.BTBHitRatio            0.996559                       # BTB Hit Ratio (Ratio)
system.cpu.branchPred.RASUsed                 1408746                       # Number of times the RAS was used to get a target. (Count)
system.cpu.branchPred.RASIncorrect              21670                       # Number of incorrect RAS predictions. (Count)
system.cpu.branchPred.indirectLookups          143832                       # Number of indirect predictor lookups. (Count)
system.cpu.branchPred.indirectHits             123676                       # Number of indirect target hits. (Count)
system.cpu.branchPred.indirectMisses            20156                       # Number of indirect misses. (Count)
system.cpu.branchPred.indirectMispredicted         1344                       # Number of mispredicted indirect branches. (Count)
system.cpu.commit.commitSquashedInsts       218231572                       # The number of squashed insts skipped by commit (Count)
system.cpu.commit.commitNonSpecStalls          389076                       # The number of times commit has been forced to stall to communicate backwards (Count)
system.cpu.commit.branchMispredicts           7794684                       # The number of times a branch was mispredicted (Count)
system.cpu.commit.numCommittedDist::samples  13747023580                       # Number of insts commited each cycle (Count)
system.cpu.commit.numCommittedDist::mean     0.056913                       # Number of insts commited each cycle (Count)
system.cpu.commit.numCommittedDist::stdev     0.426035                       # Number of insts commited each cycle (Count)
system.cpu.commit.numCommittedDist::underflows            0      0.00%      0.00% # Number of insts commited each cycle (Count)
system.cpu.commit.numCommittedDist::0     13360787745     97.19%     97.19% # Number of insts commited each cycle (Count)
system.cpu.commit.numCommittedDist::1       212699443      1.55%     98.74% # Number of insts commited each cycle (Count)
system.cpu.commit.numCommittedDist::2        77102303      0.56%     99.30% # Number of insts commited each cycle (Count)
system.cpu.commit.numCommittedDist::3        48215444      0.35%     99.65% # Number of insts commited each cycle (Count)
system.cpu.commit.numCommittedDist::4         1003841      0.01%     99.66% # Number of insts commited each cycle (Count)
system.cpu.commit.numCommittedDist::5        34307432      0.25%     99.91% # Number of insts commited each cycle (Count)
system.cpu.commit.numCommittedDist::6         2294995      0.02%     99.92% # Number of insts commited each cycle (Count)
system.cpu.commit.numCommittedDist::7         3394246      0.02%     99.95% # Number of insts commited each cycle (Count)
system.cpu.commit.numCommittedDist::8         7218131      0.05%    100.00% # Number of insts commited each cycle (Count)
system.cpu.commit.numCommittedDist::overflows            0      0.00%    100.00% # Number of insts commited each cycle (Count)
system.cpu.commit.numCommittedDist::min_value            0                       # Number of insts commited each cycle (Count)
system.cpu.commit.numCommittedDist::max_value            8                       # Number of insts commited each cycle (Count)
system.cpu.commit.numCommittedDist::total  13747023580                       # Number of insts commited each cycle (Count)
system.cpu.commit.instsCommitted            776290342                       # Number of instructions committed (Count)
system.cpu.commit.opsCommitted              782377645                       # Number of ops (including micro ops) committed (Count)
system.cpu.commit.memRefs                   281171841                       # Number of memory references committed (Count)
system.cpu.commit.loads                     270004061                       # Number of loads committed (Count)
system.cpu.commit.amos                              6                       # Number of atomic instructions committed (Count)
system.cpu.commit.membars                      161472                       # Number of memory barriers committed (Count)
system.cpu.commit.branches                  169818292                       # Number of branches committed (Count)
system.cpu.commit.vectorInstructions              640                       # Number of committed Vector instructions. (Count)
system.cpu.commit.floating                          0                       # Number of committed floating point instructions. (Count)
system.cpu.commit.integer                   713530107                       # Number of committed integer instructions. (Count)
system.cpu.commit.functionCalls               1096105                       # Number of function calls committed. (Count)
system.cpu.commit.committedInstType_0::No_OpClass            7      0.00%      0.00% # Class of committed instruction (Count)
system.cpu.commit.committedInstType_0::IntAlu    501117232     64.05%     64.05% # Class of committed instruction (Count)
system.cpu.commit.committedInstType_0::IntMult        80244      0.01%     64.06% # Class of committed instruction (Count)
system.cpu.commit.committedInstType_0::IntDiv         8321      0.00%     64.06% # Class of committed instruction (Count)
system.cpu.commit.committedInstType_0::FloatAdd            0      0.00%     64.06% # Class of committed instruction (Count)
system.cpu.commit.committedInstType_0::FloatCmp            0      0.00%     64.06% # Class of committed instruction (Count)
system.cpu.commit.committedInstType_0::FloatCvt            0      0.00%     64.06% # Class of committed instruction (Count)
system.cpu.commit.committedInstType_0::FloatMult            0      0.00%     64.06% # Class of committed instruction (Count)
system.cpu.commit.committedInstType_0::FloatMultAcc            0      0.00%     64.06% # Class of committed instruction (Count)
system.cpu.commit.committedInstType_0::FloatDiv            0      0.00%     64.06% # Class of committed instruction (Count)
system.cpu.commit.committedInstType_0::FloatMisc            0      0.00%     64.06% # Class of committed instruction (Count)
system.cpu.commit.committedInstType_0::FloatSqrt            0      0.00%     64.06% # Class of committed instruction (Count)
system.cpu.commit.committedInstType_0::SimdAdd            0      0.00%     64.06% # Class of committed instruction (Count)
system.cpu.commit.committedInstType_0::SimdAddAcc            0      0.00%     64.06% # Class of committed instruction (Count)
system.cpu.commit.committedInstType_0::SimdAlu            0      0.00%     64.06% # Class of committed instruction (Count)
system.cpu.commit.committedInstType_0::SimdCmp            0      0.00%     64.06% # Class of committed instruction (Count)
system.cpu.commit.committedInstType_0::SimdCvt            0      0.00%     64.06% # Class of committed instruction (Count)
system.cpu.commit.committedInstType_0::SimdMisc            0      0.00%     64.06% # Class of committed instruction (Count)
system.cpu.commit.committedInstType_0::SimdMult            0      0.00%     64.06% # Class of committed instruction (Count)
system.cpu.commit.committedInstType_0::SimdMultAcc            0      0.00%     64.06% # Class of committed instruction (Count)
system.cpu.commit.committedInstType_0::SimdShift            0      0.00%     64.06% # Class of committed instruction (Count)
system.cpu.commit.committedInstType_0::SimdShiftAcc            0      0.00%     64.06% # Class of committed instruction (Count)
system.cpu.commit.committedInstType_0::SimdDiv            0      0.00%     64.06% # Class of committed instruction (Count)
system.cpu.commit.committedInstType_0::SimdSqrt            0      0.00%     64.06% # Class of committed instruction (Count)
system.cpu.commit.committedInstType_0::SimdFloatAdd            0      0.00%     64.06% # Class of committed instruction (Count)
system.cpu.commit.committedInstType_0::SimdFloatAlu            0      0.00%     64.06% # Class of committed instruction (Count)
system.cpu.commit.committedInstType_0::SimdFloatCmp            0      0.00%     64.06% # Class of committed instruction (Count)
system.cpu.commit.committedInstType_0::SimdFloatCvt            0      0.00%     64.06% # Class of committed instruction (Count)
system.cpu.commit.committedInstType_0::SimdFloatDiv            0      0.00%     64.06% # Class of committed instruction (Count)
system.cpu.commit.committedInstType_0::SimdFloatMisc            0      0.00%     64.06% # Class of committed instruction (Count)
system.cpu.commit.committedInstType_0::SimdFloatMult            0      0.00%     64.06% # Class of committed instruction (Count)
system.cpu.commit.committedInstType_0::SimdFloatMultAcc            0      0.00%     64.06% # Class of committed instruction (Count)
system.cpu.commit.committedInstType_0::SimdFloatSqrt            0      0.00%     64.06% # Class of committed instruction (Count)
system.cpu.commit.committedInstType_0::SimdReduceAdd            0      0.00%     64.06% # Class of committed instruction (Count)
system.cpu.commit.committedInstType_0::SimdReduceAlu            0      0.00%     64.06% # Class of committed instruction (Count)
system.cpu.commit.committedInstType_0::SimdReduceCmp            0      0.00%     64.06% # Class of committed instruction (Count)
system.cpu.commit.committedInstType_0::SimdFloatReduceAdd            0      0.00%     64.06% # Class of committed instruction (Count)
system.cpu.commit.committedInstType_0::SimdFloatReduceCmp            0      0.00%     64.06% # Class of committed instruction (Count)
system.cpu.commit.committedInstType_0::SimdAes            0      0.00%     64.06% # Class of committed instruction (Count)
system.cpu.commit.committedInstType_0::SimdAesMix            0      0.00%     64.06% # Class of committed instruction (Count)
system.cpu.commit.committedInstType_0::SimdSha1Hash            0      0.00%     64.06% # Class of committed instruction (Count)
system.cpu.commit.committedInstType_0::SimdSha1Hash2            0      0.00%     64.06% # Class of committed instruction (Count)
system.cpu.commit.committedInstType_0::SimdSha256Hash            0      0.00%     64.06% # Class of committed instruction (Count)
system.cpu.commit.committedInstType_0::SimdSha256Hash2            0      0.00%     64.06% # Class of committed instruction (Count)
system.cpu.commit.committedInstType_0::SimdShaSigma2            0      0.00%     64.06% # Class of committed instruction (Count)
system.cpu.commit.committedInstType_0::SimdShaSigma3            0      0.00%     64.06% # Class of committed instruction (Count)
system.cpu.commit.committedInstType_0::SimdPredAlu            0      0.00%     64.06% # Class of committed instruction (Count)
system.cpu.commit.committedInstType_0::MemRead    270004061     34.51%     98.57% # Class of committed instruction (Count)
system.cpu.commit.committedInstType_0::MemWrite     11167780      1.43%    100.00% # Class of committed instruction (Count)
system.cpu.commit.committedInstType_0::FloatMemRead            0      0.00%    100.00% # Class of committed instruction (Count)
system.cpu.commit.committedInstType_0::FloatMemWrite            0      0.00%    100.00% # Class of committed instruction (Count)
system.cpu.commit.committedInstType_0::IprAccess            0      0.00%    100.00% # Class of committed instruction (Count)
system.cpu.commit.committedInstType_0::InstPrefetch            0      0.00%    100.00% # Class of committed instruction (Count)
system.cpu.commit.committedInstType_0::total    782377645                       # Class of committed instruction (Count)
system.cpu.commit.commitEligibleSamples       7218131                       # number cycles where commit BW limit reached (Cycle)
system.cpu.dcache.demandHits::cpu.data       94068935                       # number of demand (read+write) hits (Count)
system.cpu.dcache.demandHits::total          94068935                       # number of demand (read+write) hits (Count)
system.cpu.dcache.demandHitsAtPf::cpu.data       718096                       # number of demand (read+write) hits (Count)
system.cpu.dcache.demandHitsAtPf::total        718096                       # number of demand (read+write) hits (Count)
system.cpu.dcache.demandHitsAtPfAlloc::cpu.data      5979040                       # number of demand (read+write) hits (Count)
system.cpu.dcache.demandHitsAtPfAlloc::total      5979040                       # number of demand (read+write) hits (Count)
system.cpu.dcache.hitsAtPfCoverAccess::8     0.002383                       # hits at prefetch / demand accesses (Count)
system.cpu.dcache.hitsAtPfCoverAccess::total     0.002383                       # hits at prefetch / demand accesses (Count)
system.cpu.dcache.hitsAtPfAllocCoverAccess::8     0.019843                       # hits at prefetch alloc / demand accesses (Count)
system.cpu.dcache.hitsAtPfAllocCoverAccess::total     0.019843                       # hits at prefetch alloc / demand accesses (Count)
system.cpu.dcache.hitsPfRatio::8             8.326241                       # hits at prefetch alloc / hits at prefetch (Count)
system.cpu.dcache.hitsPfRatio::total         8.326241                       # hits at prefetch alloc / hits at prefetch (Count)
system.cpu.dcache.overallHits::cpu.data      94158412                       # number of overall hits (Count)
system.cpu.dcache.overallHits::total         94158412                       # number of overall hits (Count)
system.cpu.dcache.demandMisses::cpu.data    207242999                       # number of demand (read+write) misses (Count)
system.cpu.dcache.demandMisses::total       207242999                       # number of demand (read+write) misses (Count)
system.cpu.dcache.overallMisses::cpu.data    207249972                       # number of overall misses (Count)
system.cpu.dcache.overallMisses::total      207249972                       # number of overall misses (Count)
system.cpu.dcache.demandMissLatency::cpu.data 12650518592755                       # number of demand (read+write) miss ticks (Tick)
system.cpu.dcache.demandMissLatency::total 12650518592755                       # number of demand (read+write) miss ticks (Tick)
system.cpu.dcache.overallMissLatency::cpu.data 12650518592755                       # number of overall miss ticks (Tick)
system.cpu.dcache.overallMissLatency::total 12650518592755                       # number of overall miss ticks (Tick)
system.cpu.dcache.demandAccesses::cpu.data    301311934                       # number of demand (read+write) accesses (Count)
system.cpu.dcache.demandAccesses::total     301311934                       # number of demand (read+write) accesses (Count)
system.cpu.dcache.overallAccesses::cpu.data    301408384                       # number of overall (read+write) accesses (Count)
system.cpu.dcache.overallAccesses::total    301408384                       # number of overall (read+write) accesses (Count)
system.cpu.dcache.demandMissRate::cpu.data     0.687802                       # miss rate for demand accesses (Ratio)
system.cpu.dcache.demandMissRate::total      0.687802                       # miss rate for demand accesses (Ratio)
system.cpu.dcache.overallMissRate::cpu.data     0.687605                       # miss rate for overall accesses (Ratio)
system.cpu.dcache.overallMissRate::total     0.687605                       # miss rate for overall accesses (Ratio)
system.cpu.dcache.demandAvgMissLatency::cpu.data 61041.958733                       # average overall miss latency in ticks ((Tick/Count))
system.cpu.dcache.demandAvgMissLatency::total 61041.958733                       # average overall miss latency in ticks ((Tick/Count))
system.cpu.dcache.overallAvgMissLatency::cpu.data 61039.904955                       # average overall miss latency ((Tick/Count))
system.cpu.dcache.overallAvgMissLatency::total 61039.904955                       # average overall miss latency ((Tick/Count))
system.cpu.dcache.blockedCycles::no_mshrs      6850130                       # number of cycles access was blocked (Cycle)
system.cpu.dcache.blockedCycles::no_targets       698764                       # number of cycles access was blocked (Cycle)
system.cpu.dcache.blockedCauses::no_mshrs       591695                       # number of times access was blocked (Count)
system.cpu.dcache.blockedCauses::no_targets         7810                       # number of times access was blocked (Count)
system.cpu.dcache.avgBlocked::no_mshrs      11.577130                       # average number of cycles each access was blocked ((Cycle/Count))
system.cpu.dcache.avgBlocked::no_targets    89.470423                       # average number of cycles each access was blocked ((Cycle/Count))
system.cpu.dcache.writebacks::writebacks     65526300                       # number of writebacks (Count)
system.cpu.dcache.writebacks::total          65526300                       # number of writebacks (Count)
system.cpu.dcache.demandMshrHits::cpu.data    143015989                       # number of demand (read+write) MSHR hits (Count)
system.cpu.dcache.demandMshrHits::total     143015989                       # number of demand (read+write) MSHR hits (Count)
system.cpu.dcache.overallMshrHits::cpu.data    143015989                       # number of overall MSHR hits (Count)
system.cpu.dcache.overallMshrHits::total    143015989                       # number of overall MSHR hits (Count)
system.cpu.dcache.demandMshrHitsAtPf::cpu.data       570318                       # number of demand (read+write) MSHR hits (Count)
system.cpu.dcache.demandMshrHitsAtPf::total       570318                       # number of demand (read+write) MSHR hits (Count)
system.cpu.dcache.demandMshrMisses::cpu.data     64227010                       # number of demand (read+write) MSHR misses (Count)
system.cpu.dcache.demandMshrMisses::total     64227010                       # number of demand (read+write) MSHR misses (Count)
system.cpu.dcache.overallMshrMisses::cpu.data     64233965                       # number of overall MSHR misses (Count)
system.cpu.dcache.overallMshrMisses::cpu.dcache.prefetcher      1299702                       # number of overall MSHR misses (Count)
system.cpu.dcache.overallMshrMisses::total     65533667                       # number of overall MSHR misses (Count)
system.cpu.dcache.overallMshrUncacheable::cpu.data         4224                       # number of overall MSHR uncacheable misses (Count)
system.cpu.dcache.overallMshrUncacheable::total         4224                       # number of overall MSHR uncacheable misses (Count)
system.cpu.dcache.demandMshrMissLatency::cpu.data 3848337373566                       # number of demand (read+write) MSHR miss ticks (Tick)
system.cpu.dcache.demandMshrMissLatency::total 3848337373566                       # number of demand (read+write) MSHR miss ticks (Tick)
system.cpu.dcache.overallMshrMissLatency::cpu.data 3848572447966                       # number of overall MSHR miss ticks (Tick)
system.cpu.dcache.overallMshrMissLatency::cpu.dcache.prefetcher  76241620608                       # number of overall MSHR miss ticks (Tick)
system.cpu.dcache.overallMshrMissLatency::total 3924814068574                       # number of overall MSHR miss ticks (Tick)
system.cpu.dcache.overallMshrUncacheableLatency::cpu.data    120233600                       # number of overall MSHR uncacheable ticks (Tick)
system.cpu.dcache.overallMshrUncacheableLatency::total    120233600                       # number of overall MSHR uncacheable ticks (Tick)
system.cpu.dcache.demandMshrMissRate::cpu.data     0.213158                       # mshr miss ratio for demand accesses (Ratio)
system.cpu.dcache.demandMshrMissRate::total     0.213158                       # mshr miss ratio for demand accesses (Ratio)
system.cpu.dcache.overallMshrMissRate::cpu.data     0.213113                       # mshr miss ratio for overall accesses (Ratio)
system.cpu.dcache.overallMshrMissRate::cpu.dcache.prefetcher          inf                       # mshr miss ratio for overall accesses (Ratio)
system.cpu.dcache.overallMshrMissRate::total     0.217425                       # mshr miss ratio for overall accesses (Ratio)
system.cpu.dcache.demandAvgMshrMissLatency::cpu.data 59917.741361                       # average overall mshr miss latency ((Tick/Count))
system.cpu.dcache.demandAvgMshrMissLatency::total 59917.741361                       # average overall mshr miss latency ((Tick/Count))
system.cpu.dcache.overallAvgMshrMissLatency::cpu.data 59914.913363                       # average overall mshr miss latency ((Tick/Count))
system.cpu.dcache.overallAvgMshrMissLatency::cpu.dcache.prefetcher 58660.847339                       # average overall mshr miss latency ((Tick/Count))
system.cpu.dcache.overallAvgMshrMissLatency::total 59890.041993                       # average overall mshr miss latency ((Tick/Count))
system.cpu.dcache.overallAvgMshrUncacheableLatency::cpu.data 28464.393939                       # average overall mshr uncacheable latency ((Tick/Count))
system.cpu.dcache.overallAvgMshrUncacheableLatency::total 28464.393939                       # average overall mshr uncacheable latency ((Tick/Count))
system.cpu.dcache.replacements               65526300                       # number of replacements (Count)
system.cpu.dcache.prefetchFills                729384                       # number of prefetch fills (Count)
system.cpu.dcache.prefetchHits                 718099                       # number of prefetch hits (Count)
system.cpu.dcache.HardPFReq.mshrMisses::cpu.dcache.prefetcher      1299702                       # number of HardPFReq MSHR misses (Count)
system.cpu.dcache.HardPFReq.mshrMisses::total      1299702                       # number of HardPFReq MSHR misses (Count)
system.cpu.dcache.HardPFReq.mshrMissLatency::cpu.dcache.prefetcher  76241620608                       # number of HardPFReq MSHR miss ticks (Tick)
system.cpu.dcache.HardPFReq.mshrMissLatency::total  76241620608                       # number of HardPFReq MSHR miss ticks (Tick)
system.cpu.dcache.HardPFReq.mshrMissRate::cpu.dcache.prefetcher          inf                       # mshr miss rate for HardPFReq accesses (Ratio)
system.cpu.dcache.HardPFReq.mshrMissRate::total          inf                       # mshr miss rate for HardPFReq accesses (Ratio)
system.cpu.dcache.HardPFReq.avgMshrMissLatency::cpu.dcache.prefetcher 58660.847339                       # average HardPFReq mshr miss latency ((Tick/Count))
system.cpu.dcache.HardPFReq.avgMshrMissLatency::total 58660.847339                       # average HardPFReq mshr miss latency ((Tick/Count))
system.cpu.dcache.LoadLockedReq.hits::cpu.data        99704                       # number of LoadLockedReq hits (Count)
system.cpu.dcache.LoadLockedReq.hits::total        99704                       # number of LoadLockedReq hits (Count)
system.cpu.dcache.LoadLockedReq.hitsAtPf::cpu.data            3                       # number of LoadLockedReq hits (Count)
system.cpu.dcache.LoadLockedReq.hitsAtPf::total            3                       # number of LoadLockedReq hits (Count)
system.cpu.dcache.LoadLockedReq.hitsAtPfAlloc::cpu.data        21037                       # number of LoadLockedReq hits (Count)
system.cpu.dcache.LoadLockedReq.hitsAtPfAlloc::total        21037                       # number of LoadLockedReq hits (Count)
system.cpu.dcache.LoadLockedReq.misses::cpu.data         8339                       # number of LoadLockedReq misses (Count)
system.cpu.dcache.LoadLockedReq.misses::total         8339                       # number of LoadLockedReq misses (Count)
system.cpu.dcache.LoadLockedReq.missLatency::cpu.data    327150400                       # number of LoadLockedReq miss ticks (Tick)
system.cpu.dcache.LoadLockedReq.missLatency::total    327150400                       # number of LoadLockedReq miss ticks (Tick)
system.cpu.dcache.LoadLockedReq.accesses::cpu.data       108043                       # number of LoadLockedReq accesses(hits+misses) (Count)
system.cpu.dcache.LoadLockedReq.accesses::total       108043                       # number of LoadLockedReq accesses(hits+misses) (Count)
system.cpu.dcache.LoadLockedReq.missRate::cpu.data     0.077182                       # miss rate for LoadLockedReq accesses (Ratio)
system.cpu.dcache.LoadLockedReq.missRate::total     0.077182                       # miss rate for LoadLockedReq accesses (Ratio)
system.cpu.dcache.LoadLockedReq.avgMissLatency::cpu.data 39231.370668                       # average LoadLockedReq miss latency ((Tick/Count))
system.cpu.dcache.LoadLockedReq.avgMissLatency::total 39231.370668                       # average LoadLockedReq miss latency ((Tick/Count))
system.cpu.dcache.LoadLockedReq.mshrHits::cpu.data         6941                       # number of LoadLockedReq MSHR hits (Count)
system.cpu.dcache.LoadLockedReq.mshrHits::total         6941                       # number of LoadLockedReq MSHR hits (Count)
system.cpu.dcache.LoadLockedReq.mshrMisses::cpu.data         1398                       # number of LoadLockedReq MSHR misses (Count)
system.cpu.dcache.LoadLockedReq.mshrMisses::total         1398                       # number of LoadLockedReq MSHR misses (Count)
system.cpu.dcache.LoadLockedReq.mshrMissLatency::cpu.data     82613200                       # number of LoadLockedReq MSHR miss ticks (Tick)
system.cpu.dcache.LoadLockedReq.mshrMissLatency::total     82613200                       # number of LoadLockedReq MSHR miss ticks (Tick)
system.cpu.dcache.LoadLockedReq.mshrMissRate::cpu.data     0.012939                       # mshr miss rate for LoadLockedReq accesses (Ratio)
system.cpu.dcache.LoadLockedReq.mshrMissRate::total     0.012939                       # mshr miss rate for LoadLockedReq accesses (Ratio)
system.cpu.dcache.LoadLockedReq.avgMshrMissLatency::cpu.data 59093.848355                       # average LoadLockedReq mshr miss latency ((Tick/Count))
system.cpu.dcache.LoadLockedReq.avgMshrMissLatency::total 59093.848355                       # average LoadLockedReq mshr miss latency ((Tick/Count))
system.cpu.dcache.ReadReq.hits::cpu.data     83855916                       # number of ReadReq hits (Count)
system.cpu.dcache.ReadReq.hits::total        83855916                       # number of ReadReq hits (Count)
system.cpu.dcache.ReadReq.hitsAtPf::cpu.data       716609                       # number of ReadReq hits (Count)
system.cpu.dcache.ReadReq.hitsAtPf::total       716609                       # number of ReadReq hits (Count)
system.cpu.dcache.ReadReq.hitsAtPfAlloc::cpu.data      5850251                       # number of ReadReq hits (Count)
system.cpu.dcache.ReadReq.hitsAtPfAlloc::total      5850251                       # number of ReadReq hits (Count)
system.cpu.dcache.ReadReq.misses::cpu.data    206396237                       # number of ReadReq misses (Count)
system.cpu.dcache.ReadReq.misses::total     206396237                       # number of ReadReq misses (Count)
system.cpu.dcache.ReadReq.missLatency::cpu.data 12620387545200                       # number of ReadReq miss ticks (Tick)
system.cpu.dcache.ReadReq.missLatency::total 12620387545200                       # number of ReadReq miss ticks (Tick)
system.cpu.dcache.ReadReq.accesses::cpu.data    290252153                       # number of ReadReq accesses(hits+misses) (Count)
system.cpu.dcache.ReadReq.accesses::total    290252153                       # number of ReadReq accesses(hits+misses) (Count)
system.cpu.dcache.ReadReq.missRate::cpu.data     0.711093                       # miss rate for ReadReq accesses (Ratio)
system.cpu.dcache.ReadReq.missRate::total     0.711093                       # miss rate for ReadReq accesses (Ratio)
system.cpu.dcache.ReadReq.avgMissLatency::cpu.data 61146.403290                       # average ReadReq miss latency ((Tick/Count))
system.cpu.dcache.ReadReq.avgMissLatency::total 61146.403290                       # average ReadReq miss latency ((Tick/Count))
system.cpu.dcache.ReadReq.mshrHits::cpu.data    142856837                       # number of ReadReq MSHR hits (Count)
system.cpu.dcache.ReadReq.mshrHits::total    142856837                       # number of ReadReq MSHR hits (Count)
system.cpu.dcache.ReadReq.mshrHitsAtPf::8       560145                       # number of ReadReq MSHR hits at pfMSHR (Count)
system.cpu.dcache.ReadReq.mshrHitsAtPf::total       560145                       # number of ReadReq MSHR hits at pfMSHR (Count)
system.cpu.dcache.ReadReq.mshrMisses::cpu.data     63539400                       # number of ReadReq MSHR misses (Count)
system.cpu.dcache.ReadReq.mshrMisses::total     63539400                       # number of ReadReq MSHR misses (Count)
system.cpu.dcache.ReadReq.mshrUncacheable::cpu.data         2803                       # number of ReadReq MSHR uncacheable (Count)
system.cpu.dcache.ReadReq.mshrUncacheable::total         2803                       # number of ReadReq MSHR uncacheable (Count)
system.cpu.dcache.ReadReq.mshrMissLatency::cpu.data 3827334926000                       # number of ReadReq MSHR miss ticks (Tick)
system.cpu.dcache.ReadReq.mshrMissLatency::total 3827334926000                       # number of ReadReq MSHR miss ticks (Tick)
system.cpu.dcache.ReadReq.mshrUncacheableLatency::cpu.data    120233600                       # number of ReadReq MSHR uncacheable ticks (Tick)
system.cpu.dcache.ReadReq.mshrUncacheableLatency::total    120233600                       # number of ReadReq MSHR uncacheable ticks (Tick)
system.cpu.dcache.ReadReq.mshrMissRate::cpu.data     0.218911                       # mshr miss rate for ReadReq accesses (Ratio)
system.cpu.dcache.ReadReq.mshrMissRate::total     0.218911                       # mshr miss rate for ReadReq accesses (Ratio)
system.cpu.dcache.ReadReq.avgMshrMissLatency::cpu.data 60235.616421                       # average ReadReq mshr miss latency ((Tick/Count))
system.cpu.dcache.ReadReq.avgMshrMissLatency::total 60235.616421                       # average ReadReq mshr miss latency ((Tick/Count))
system.cpu.dcache.ReadReq.avgMshrUncacheableLatency::cpu.data 42894.612915                       # average ReadReq mshr uncacheable latency ((Tick/Count))
system.cpu.dcache.ReadReq.avgMshrUncacheableLatency::total 42894.612915                       # average ReadReq mshr uncacheable latency ((Tick/Count))
system.cpu.dcache.SoftPFExReq.hits::cpu.data        89477                       # number of SoftPFExReq hits (Count)
system.cpu.dcache.SoftPFExReq.hits::total        89477                       # number of SoftPFExReq hits (Count)
system.cpu.dcache.SoftPFExReq.hitsAtPfAlloc::cpu.data        20989                       # number of SoftPFExReq hits (Count)
system.cpu.dcache.SoftPFExReq.hitsAtPfAlloc::total        20989                       # number of SoftPFExReq hits (Count)
system.cpu.dcache.SoftPFExReq.misses::cpu.data         6947                       # number of SoftPFExReq misses (Count)
system.cpu.dcache.SoftPFExReq.misses::total         6947                       # number of SoftPFExReq misses (Count)
system.cpu.dcache.SoftPFExReq.accesses::cpu.data        96424                       # number of SoftPFExReq accesses(hits+misses) (Count)
system.cpu.dcache.SoftPFExReq.accesses::total        96424                       # number of SoftPFExReq accesses(hits+misses) (Count)
system.cpu.dcache.SoftPFExReq.missRate::cpu.data     0.072046                       # miss rate for SoftPFExReq accesses (Ratio)
system.cpu.dcache.SoftPFExReq.missRate::total     0.072046                       # miss rate for SoftPFExReq accesses (Ratio)
system.cpu.dcache.SoftPFExReq.mshrMisses::cpu.data         6929                       # number of SoftPFExReq MSHR misses (Count)
system.cpu.dcache.SoftPFExReq.mshrMisses::total         6929                       # number of SoftPFExReq MSHR misses (Count)
system.cpu.dcache.SoftPFExReq.mshrMissLatency::cpu.data    233668000                       # number of SoftPFExReq MSHR miss ticks (Tick)
system.cpu.dcache.SoftPFExReq.mshrMissLatency::total    233668000                       # number of SoftPFExReq MSHR miss ticks (Tick)
system.cpu.dcache.SoftPFExReq.mshrMissRate::cpu.data     0.071860                       # mshr miss rate for SoftPFExReq accesses (Ratio)
system.cpu.dcache.SoftPFExReq.mshrMissRate::total     0.071860                       # mshr miss rate for SoftPFExReq accesses (Ratio)
system.cpu.dcache.SoftPFExReq.avgMshrMissLatency::cpu.data 33723.192380                       # average SoftPFExReq mshr miss latency ((Tick/Count))
system.cpu.dcache.SoftPFExReq.avgMshrMissLatency::total 33723.192380                       # average SoftPFExReq mshr miss latency ((Tick/Count))
system.cpu.dcache.SoftPFReq.misses::cpu.data           26                       # number of SoftPFReq misses (Count)
system.cpu.dcache.SoftPFReq.misses::total           26                       # number of SoftPFReq misses (Count)
system.cpu.dcache.SoftPFReq.accesses::cpu.data           26                       # number of SoftPFReq accesses(hits+misses) (Count)
system.cpu.dcache.SoftPFReq.accesses::total           26                       # number of SoftPFReq accesses(hits+misses) (Count)
system.cpu.dcache.SoftPFReq.missRate::cpu.data            1                       # miss rate for SoftPFReq accesses (Ratio)
system.cpu.dcache.SoftPFReq.missRate::total            1                       # miss rate for SoftPFReq accesses (Ratio)
system.cpu.dcache.SoftPFReq.mshrMisses::cpu.data           26                       # number of SoftPFReq MSHR misses (Count)
system.cpu.dcache.SoftPFReq.mshrMisses::total           26                       # number of SoftPFReq MSHR misses (Count)
system.cpu.dcache.SoftPFReq.mshrMissLatency::cpu.data      1406400                       # number of SoftPFReq MSHR miss ticks (Tick)
system.cpu.dcache.SoftPFReq.mshrMissLatency::total      1406400                       # number of SoftPFReq MSHR miss ticks (Tick)
system.cpu.dcache.SoftPFReq.mshrMissRate::cpu.data            1                       # mshr miss rate for SoftPFReq accesses (Ratio)
system.cpu.dcache.SoftPFReq.mshrMissRate::total            1                       # mshr miss rate for SoftPFReq accesses (Ratio)
system.cpu.dcache.SoftPFReq.avgMshrMissLatency::cpu.data 54092.307692                       # average SoftPFReq mshr miss latency ((Tick/Count))
system.cpu.dcache.SoftPFReq.avgMshrMissLatency::total 54092.307692                       # average SoftPFReq mshr miss latency ((Tick/Count))
system.cpu.dcache.StoreCondReq.hits::cpu.data       106579                       # number of StoreCondReq hits (Count)
system.cpu.dcache.StoreCondReq.hits::total       106579                       # number of StoreCondReq hits (Count)
system.cpu.dcache.StoreCondReq.hitsAtPfAlloc::cpu.data        21037                       # number of StoreCondReq hits (Count)
system.cpu.dcache.StoreCondReq.hitsAtPfAlloc::total        21037                       # number of StoreCondReq hits (Count)
system.cpu.dcache.StoreCondReq.accesses::cpu.data       106579                       # number of StoreCondReq accesses(hits+misses) (Count)
system.cpu.dcache.StoreCondReq.accesses::total       106579                       # number of StoreCondReq accesses(hits+misses) (Count)
system.cpu.dcache.SwapReq.hits::cpu.data            6                       # number of SwapReq hits (Count)
system.cpu.dcache.SwapReq.hits::total               6                       # number of SwapReq hits (Count)
system.cpu.dcache.SwapReq.accesses::cpu.data            6                       # number of SwapReq accesses(hits+misses) (Count)
system.cpu.dcache.SwapReq.accesses::total            6                       # number of SwapReq accesses(hits+misses) (Count)
system.cpu.dcache.WriteLineReq.hits::cpu.data           25                       # number of WriteLineReq hits (Count)
system.cpu.dcache.WriteLineReq.hits::total           25                       # number of WriteLineReq hits (Count)
system.cpu.dcache.WriteLineReq.misses::cpu.data       641434                       # number of WriteLineReq misses (Count)
system.cpu.dcache.WriteLineReq.misses::total       641434                       # number of WriteLineReq misses (Count)
system.cpu.dcache.WriteLineReq.missLatency::cpu.data  20122524663                       # number of WriteLineReq miss ticks (Tick)
system.cpu.dcache.WriteLineReq.missLatency::total  20122524663                       # number of WriteLineReq miss ticks (Tick)
system.cpu.dcache.WriteLineReq.accesses::cpu.data       641459                       # number of WriteLineReq accesses(hits+misses) (Count)
system.cpu.dcache.WriteLineReq.accesses::total       641459                       # number of WriteLineReq accesses(hits+misses) (Count)
system.cpu.dcache.WriteLineReq.missRate::cpu.data     0.999961                       # miss rate for WriteLineReq accesses (Ratio)
system.cpu.dcache.WriteLineReq.missRate::total     0.999961                       # miss rate for WriteLineReq accesses (Ratio)
system.cpu.dcache.WriteLineReq.avgMissLatency::cpu.data 31371.153794                       # average WriteLineReq miss latency ((Tick/Count))
system.cpu.dcache.WriteLineReq.avgMissLatency::total 31371.153794                       # average WriteLineReq miss latency ((Tick/Count))
system.cpu.dcache.WriteLineReq.mshrHits::cpu.data        10039                       # number of WriteLineReq MSHR hits (Count)
system.cpu.dcache.WriteLineReq.mshrHits::total        10039                       # number of WriteLineReq MSHR hits (Count)
system.cpu.dcache.WriteLineReq.mshrHitsAtPf::8        10035                       # number of WriteLineReq MSHR hits at pfMSHR (Count)
system.cpu.dcache.WriteLineReq.mshrHitsAtPf::total        10035                       # number of WriteLineReq MSHR hits at pfMSHR (Count)
system.cpu.dcache.WriteLineReq.mshrMisses::cpu.data       631395                       # number of WriteLineReq MSHR misses (Count)
system.cpu.dcache.WriteLineReq.mshrMisses::total       631395                       # number of WriteLineReq MSHR misses (Count)
system.cpu.dcache.WriteLineReq.mshrMissLatency::cpu.data  18507077064                       # number of WriteLineReq MSHR miss ticks (Tick)
system.cpu.dcache.WriteLineReq.mshrMissLatency::total  18507077064                       # number of WriteLineReq MSHR miss ticks (Tick)
system.cpu.dcache.WriteLineReq.mshrMissRate::cpu.data     0.984311                       # mshr miss rate for WriteLineReq accesses (Ratio)
system.cpu.dcache.WriteLineReq.mshrMissRate::total     0.984311                       # mshr miss rate for WriteLineReq accesses (Ratio)
system.cpu.dcache.WriteLineReq.avgMshrMissLatency::cpu.data 29311.408966                       # average WriteLineReq mshr miss latency ((Tick/Count))
system.cpu.dcache.WriteLineReq.avgMshrMissLatency::total 29311.408966                       # average WriteLineReq mshr miss latency ((Tick/Count))
system.cpu.dcache.WriteReq.hits::cpu.data     10212994                       # number of WriteReq hits (Count)
system.cpu.dcache.WriteReq.hits::total       10212994                       # number of WriteReq hits (Count)
system.cpu.dcache.WriteReq.hitsAtPf::cpu.data         1487                       # number of WriteReq hits (Count)
system.cpu.dcache.WriteReq.hitsAtPf::total         1487                       # number of WriteReq hits (Count)
system.cpu.dcache.WriteReq.hitsAtPfAlloc::cpu.data       128789                       # number of WriteReq hits (Count)
system.cpu.dcache.WriteReq.hitsAtPfAlloc::total       128789                       # number of WriteReq hits (Count)
system.cpu.dcache.WriteReq.misses::cpu.data       205328                       # number of WriteReq misses (Count)
system.cpu.dcache.WriteReq.misses::total       205328                       # number of WriteReq misses (Count)
system.cpu.dcache.WriteReq.missLatency::cpu.data  10008522892                       # number of WriteReq miss ticks (Tick)
system.cpu.dcache.WriteReq.missLatency::total  10008522892                       # number of WriteReq miss ticks (Tick)
system.cpu.dcache.WriteReq.accesses::cpu.data     10418322                       # number of WriteReq accesses(hits+misses) (Count)
system.cpu.dcache.WriteReq.accesses::total     10418322                       # number of WriteReq accesses(hits+misses) (Count)
system.cpu.dcache.WriteReq.missRate::cpu.data     0.019708                       # miss rate for WriteReq accesses (Ratio)
system.cpu.dcache.WriteReq.missRate::total     0.019708                       # miss rate for WriteReq accesses (Ratio)
system.cpu.dcache.WriteReq.avgMissLatency::cpu.data 48744.072372                       # average WriteReq miss latency ((Tick/Count))
system.cpu.dcache.WriteReq.avgMissLatency::total 48744.072372                       # average WriteReq miss latency ((Tick/Count))
system.cpu.dcache.WriteReq.mshrHits::cpu.data       149113                       # number of WriteReq MSHR hits (Count)
system.cpu.dcache.WriteReq.mshrHits::total       149113                       # number of WriteReq MSHR hits (Count)
system.cpu.dcache.WriteReq.mshrHitsAtPf::8          138                       # number of WriteReq MSHR hits at pfMSHR (Count)
system.cpu.dcache.WriteReq.mshrHitsAtPf::total          138                       # number of WriteReq MSHR hits at pfMSHR (Count)
system.cpu.dcache.WriteReq.mshrMisses::cpu.data        56215                       # number of WriteReq MSHR misses (Count)
system.cpu.dcache.WriteReq.mshrMisses::total        56215                       # number of WriteReq MSHR misses (Count)
system.cpu.dcache.WriteReq.mshrUncacheable::cpu.data         1421                       # number of WriteReq MSHR uncacheable (Count)
system.cpu.dcache.WriteReq.mshrUncacheable::total         1421                       # number of WriteReq MSHR uncacheable (Count)
system.cpu.dcache.WriteReq.mshrMissLatency::cpu.data   2495370502                       # number of WriteReq MSHR miss ticks (Tick)
system.cpu.dcache.WriteReq.mshrMissLatency::total   2495370502                       # number of WriteReq MSHR miss ticks (Tick)
system.cpu.dcache.WriteReq.mshrMissRate::cpu.data     0.005396                       # mshr miss rate for WriteReq accesses (Ratio)
system.cpu.dcache.WriteReq.mshrMissRate::total     0.005396                       # mshr miss rate for WriteReq accesses (Ratio)
system.cpu.dcache.WriteReq.avgMshrMissLatency::cpu.data 44389.762554                       # average WriteReq mshr miss latency ((Tick/Count))
system.cpu.dcache.WriteReq.avgMshrMissLatency::total 44389.762554                       # average WriteReq mshr miss latency ((Tick/Count))
system.cpu.dcache.power_state.pwrStateResidencyTicks::UNDEFINED 8997884000800                       # Cumulative time (in ticks) in various power states (Tick)
system.cpu.dcache.prefetcher.demandMshrMisses     64227010                       # demands not covered by prefetchs (Count)
system.cpu.dcache.prefetcher.demandMshrHitsAtPf       570318                       # demands hit in mshr allocated by prefetchs (Count)
system.cpu.dcache.prefetcher.pfIssued        28186815                       # number of hwpf issued (Count)
system.cpu.dcache.prefetcher.pfUnused           11290                       # number of HardPF blocks evicted w/o reference (Count)
system.cpu.dcache.prefetcher.pfUseful          718099                       # number of useful prefetch (Count)
system.cpu.dcache.prefetcher.pfUsefulButMiss            0                       # number of hit on prefetch but cache block is not in an usable state (Count)
system.cpu.dcache.prefetcher.pf_cosumed      0.019835                       # pf_cosumed of the prefetcher (Count)
system.cpu.dcache.prefetcher.pf_effective     0.991317                       # pf_effective of the prefetcher (Count)
system.cpu.dcache.prefetcher.pf_timely       0.557350                       # pf_timely of the prefetcher (Count)
system.cpu.dcache.prefetcher.accuracy_cache     0.552510                       # accuracy_cache of the prefetcher (Count)
system.cpu.dcache.prefetcher.accuracy_prefetcher     0.999600                       # accuracy_prefetcher of the prefetcher (Count)
system.cpu.dcache.prefetcher.pfHitInCache     24121541                       # number of prefetches hitting in cache (Count)
system.cpu.dcache.prefetcher.pfHitInMSHR      2765572                       # number of prefetches hitting in a MSHR (Count)
system.cpu.dcache.prefetcher.pfHitInWB              0                       # number of prefetches hit in the Write Buffer (Count)
system.cpu.dcache.prefetcher.pfLate          26887113                       # number of late prefetches (hitting in cache, MSHR or WB) (Count)
system.cpu.dcache.prefetcher.pfLateRate      0.953890                       # number of late prefetches (hitting in cache, MSHR or WB) (Count)
system.cpu.dcache.prefetcher.pfIdentified     62305771                       # number of prefetch candidates identified (Count)
system.cpu.dcache.prefetcher.pfBufferHit     27789874                       # number of redundant prefetches already in prefetch queue (Count)
system.cpu.dcache.prefetcher.pfInCache              0                       # number of redundant prefetches already in cache/mshr dropped (Count)
system.cpu.dcache.prefetcher.pfRemovedDemand      1652811                       # number of prefetches dropped due to a demand for the same address (Count)
system.cpu.dcache.prefetcher.pfRemovedFull            0                       # number of prefetches dropped due to prefetch queue size (Count)
system.cpu.dcache.prefetcher.pfSpanPage       2574105                       # number of prefetches that crossed the page (Count)
system.cpu.dcache.prefetcher.pfUsefulSpanPage       100125                       # number of prefetches that is useful and crossed the page (Count)
system.cpu.dcache.prefetcher.pfTransFailed       154203                       # number of pfq empty and translation not avaliable immediately when there is a chance for prefetch (Count)
system.cpu.dcache.prefetcher.dmp_pfIdentified       154203                       # number of DMP prefetch candidates identified (Count)
system.cpu.dcache.prefetcher.dmp_dataFill            0                       # number of DMP prefetch candidates identified (Count)
system.cpu.dcache.prefetcher.power_state.pwrStateResidencyTicks::UNDEFINED 8997884000800                       # Cumulative time (in ticks) in various power states (Tick)
system.cpu.dcache.tags.tagsInUse                  512                       # Average ticks per tags in use ((Tick/Count))
system.cpu.dcache.tags.totalRefs            340843139                       # Total number of references to valid blocks. (Count)
system.cpu.dcache.tags.sampledRefs           65526300                       # Sample count of references to valid blocks. (Count)
system.cpu.dcache.tags.avgRefs               5.201623                       # Average number of references to valid blocks. ((Count/Count))
system.cpu.dcache.tags.warmupTick                   0                       # The tick when the warmup percentage was hit. (Tick)
system.cpu.dcache.tags.occupancies::cpu.data   501.281769                       # Average occupied blocks per tick, per requestor ((Count/Tick))
system.cpu.dcache.tags.occupancies::cpu.dcache.prefetcher    10.718231                       # Average occupied blocks per tick, per requestor ((Count/Tick))
system.cpu.dcache.tags.avgOccs::cpu.data     0.979066                       # Average percentage of cache occupancy ((Ratio/Tick))
system.cpu.dcache.tags.avgOccs::cpu.dcache.prefetcher     0.020934                       # Average percentage of cache occupancy ((Ratio/Tick))
system.cpu.dcache.tags.avgOccs::total               1                       # Average percentage of cache occupancy ((Ratio/Tick))
system.cpu.dcache.tags.occupanciesTaskId::1022            9                       # Occupied blocks per task id (Count)
system.cpu.dcache.tags.occupanciesTaskId::1024          503                       # Occupied blocks per task id (Count)
system.cpu.dcache.tags.ageTaskId_1022::0            4                       # Occupied blocks per task id, per block age (Count)
system.cpu.dcache.tags.ageTaskId_1022::1            5                       # Occupied blocks per task id, per block age (Count)
system.cpu.dcache.tags.ageTaskId_1024::0          111                       # Occupied blocks per task id, per block age (Count)
system.cpu.dcache.tags.ageTaskId_1024::1          392                       # Occupied blocks per task id, per block age (Count)
system.cpu.dcache.tags.ratioOccsTaskId::1022     0.017578                       # Ratio of occupied blocks and all blocks, per task id (Ratio)
system.cpu.dcache.tags.ratioOccsTaskId::1024     0.982422                       # Ratio of occupied blocks and all blocks, per task id (Ratio)
system.cpu.dcache.tags.tagAccesses         2671482724                       # Number of tag accesses (Count)
system.cpu.dcache.tags.dataAccesses        2671482724                       # Number of data accesses (Count)
system.cpu.dcache.tags.power_state.pwrStateResidencyTicks::UNDEFINED 8997884000800                       # Cumulative time (in ticks) in various power states (Tick)
system.cpu.decode.idleCycles                133510520                       # Number of cycles decode is idle (Cycle)
system.cpu.decode.blockedCycles           13239868266                       # Number of cycles decode is blocked (Cycle)
system.cpu.decode.runCycles                 224626266                       # Number of cycles decode is running (Cycle)
system.cpu.decode.unblockCycles             171750504                       # Number of cycles decode is unblocking (Cycle)
system.cpu.decode.squashCycles                7844585                       # Number of cycles decode is squashing (Cycle)
system.cpu.decode.branchResolved             84599335                       # Number of times decode resolved a branch (Count)
system.cpu.decode.branchMispred                 83793                       # Number of times decode detected a branch misprediction (Count)
system.cpu.decode.decodedInsts             1044063717                       # Number of instructions handled by decode (Count)
system.cpu.decode.squashedInsts              10336738                       # Number of squashed instructions handled by decode (Count)
system.cpu.fetch.icacheStallCycles            8252126                       # Number of cycles fetch is stalled on an Icache miss (Cycle)
system.cpu.fetch.insts                     1312143519                       # Number of instructions fetch has processed (Count)
system.cpu.fetch.branches                   293275840                       # Number of branches that fetch encountered (Count)
system.cpu.fetch.predictedBranches          109202322                       # Number of branches that fetch has predicted taken (Count)
system.cpu.fetch.cycles                   13759092327                       # Number of cycles fetch has run and was not squashing or blocked (Cycle)
system.cpu.fetch.squashCycles                15856662                       # Number of cycles fetch has spent squashing (Cycle)
system.cpu.fetch.tlbCycles                      55882                       # Number of cycles fetch has spent waiting for tlb (Cycle)
system.cpu.fetch.miscStallCycles              1320856                       # Number of cycles fetch has spent waiting on interrupts, or bad addresses, or out of MSHRs (Cycle)
system.cpu.fetch.pendingTrapStallCycles        943703                       # Number of stall cycles due to pending traps (Cycle)
system.cpu.fetch.pendingQuiesceStallCycles         2824                       # Number of stall cycles due to pending quiesce instructions (Cycle)
system.cpu.fetch.icacheWaitRetryStallCycles         4092                       # Number of stall cycles due to full MSHR (Cycle)
system.cpu.fetch.cacheLines                 416847496                       # Number of cache lines fetched (Count)
system.cpu.fetch.icacheSquashes                  8931                       # Number of outstanding Icache misses that were squashed (Count)
system.cpu.fetch.tlbSquashes                      258                       # Number of outstanding ITLB misses that were squashed (Count)
system.cpu.fetch.nisnDist::samples        13777600141                       # Number of instructions fetched each cycle (Total) (Count)
system.cpu.fetch.nisnDist::mean              0.095774                       # Number of instructions fetched each cycle (Total) (Count)
system.cpu.fetch.nisnDist::stdev             0.468275                       # Number of instructions fetched each cycle (Total) (Count)
[...]
system.membus.pktCount::total               291483443                       # Packet count per connected requestor and responder (Count)
system.membus.pktSize_system.l2.mem_side_port::system.bridge.cpu_side_port          959                       # Cumulative packet size per connected requestor and responder (Byte)
system.membus.pktSize_system.l2.mem_side_port::system.realview.gic.pio        16716                       # Cumulative packet size per connected requestor and responder (Byte)
system.membus.pktSize_system.l2.mem_side_port::system.mem_ctrls.port   6252857216                       # Cumulative packet size per connected requestor and responder (Byte)
system.membus.pktSize_system.l2.mem_side_port::total   6252874891                       # Cumulative packet size per connected requestor and responder (Byte)
system.membus.pktSize::total               6252874891                       # Cumulative packet size per connected requestor and responder (Byte)
system.membus.snoops                              585                       # Total snoops (Count)
system.membus.snoopTraffic                      37440                       # Total snoop traffic (Byte)
system.membus.snoopFanout::samples          108932600                       # Request fanout histogram (Count)
system.membus.snoopFanout::mean              0.000005                       # Request fanout histogram (Count)
system.membus.snoopFanout::stdev             0.002317                       # Request fanout histogram (Count)
system.membus.snoopFanout::underflows               0      0.00%      0.00% # Request fanout histogram (Count)
system.membus.snoopFanout::0                108932015    100.00%    100.00% # Request fanout histogram (Count)
system.membus.snoopFanout::1                      585      0.00%    100.00% # Request fanout histogram (Count)
system.membus.snoopFanout::2                        0      0.00%    100.00% # Request fanout histogram (Count)
system.membus.snoopFanout::overflows                0      0.00%    100.00% # Request fanout histogram (Count)
system.membus.snoopFanout::min_value                0                       # Request fanout histogram (Count)
system.membus.snoopFanout::max_value                1                       # Request fanout histogram (Count)
system.membus.snoopFanout::total            108932600                       # Request fanout histogram (Count)
system.membus.badaddr_responder.power_state.pwrStateResidencyTicks::UNDEFINED 9041865672800                       # Cumulative time (in ticks) in various power states (Tick)
system.membus.power_state.pwrStateResidencyTicks::UNDEFINED 9041865672800                       # Cumulative time (in ticks) in various power states (Tick)
system.membus.reqLayer0.occupancy             1001639                       # Layer occupancy (ticks) (Tick)
system.membus.reqLayer0.utilization               0.0                       # Layer utilization (Ratio)
system.membus.reqLayer12.occupancy            7556400                       # Layer occupancy (ticks) (Tick)
system.membus.reqLayer12.utilization              0.0                       # Layer utilization (Ratio)
system.membus.reqLayer15.occupancy       288705867707                       # Layer occupancy (ticks) (Tick)
system.membus.reqLayer15.utilization              0.1                       # Layer utilization (Ratio)
system.membus.respLayer1.occupancy            2947590                       # Layer occupancy (ticks) (Tick)
system.membus.respLayer1.utilization              0.0                       # Layer utilization (Ratio)
system.membus.respLayer2.occupancy       483676047000                       # Layer occupancy (ticks) (Tick)
system.membus.respLayer2.utilization              0.1                       # Layer utilization (Ratio)
system.membus.snoop_filter.totRequests      206364271                       # Total number of requests made to the snoop filter. (Count)
system.membus.snoop_filter.hitSingleRequests     97437403                       # Number of requests hitting in the snoop filter with a single holder of the requested data. (Count)
system.membus.snoop_filter.hitMultiRequests          585                       # Number of requests hitting in the snoop filter with multiple (>1) holders of the requested data. (Count)
system.membus.snoop_filter.totSnoops                0                       # Total number of snoops made to the snoop filter. (Count)
system.membus.snoop_filter.hitSingleSnoops            0                       # Number of snoops hitting in the snoop filter with a single holder of the requested data. (Count)
system.membus.snoop_filter.hitMultiSnoops            0                       # Number of snoops hitting in the snoop filter with multiple (>1) holders of the requested data. (Count)
system.pci_ide.disks.IdeDisk.dmaReadFullPages            9                       # Number of full page size DMA reads (not PRD). (Count)
system.pci_ide.disks.IdeDisk.dmaReadBytes        36864                       # Number of bytes transfered via DMA reads (not PRD). (Byte)
system.pci_ide.disks.IdeDisk.dmaReadTxs             9                       # Number of DMA read transactions (not PRD). (Count)
system.pci_ide.disks.IdeDisk.dmaWriteFullPages            0                       # Number of full page size DMA writes. (Count)
system.pci_ide.disks.IdeDisk.dmaWriteBytes            0                       # Number of bytes transfered via DMA writes. (Byte)
system.pci_ide.disks.IdeDisk.dmaWriteTxs            0                       # Number of DMA write transactions. (Count)
system.pci_ide.power_state.pwrStateResidencyTicks::UNDEFINED 9041865672800                       # Cumulative time (in ticks) in various power states (Tick)
system.realview.bootmem.power_state.pwrStateResidencyTicks::UNDEFINED 9041865672800                       # Cumulative time (in ticks) in various power states (Tick)
system.realview.clock24MHz.clock                41667                       # Clock period in ticks (Tick)
system.realview.clock32KHz.clock             31250000                       # Clock period in ticks (Tick)
system.realview.dcc.osc_cpu.clock               16667                       # Clock period in ticks (Tick)
system.realview.dcc.osc_ddr.clock               25000                       # Clock period in ticks (Tick)
system.realview.dcc.osc_hsbm.clock              25000                       # Clock period in ticks (Tick)
system.realview.dcc.osc_pxl.clock               42105                       # Clock period in ticks (Tick)
system.realview.dcc.osc_smb.clock               20000                       # Clock period in ticks (Tick)
system.realview.dcc.osc_sys.clock               16667                       # Clock period in ticks (Tick)
system.realview.el2_watchdog.power_state.pwrStateResidencyTicks::UNDEFINED 9041865672800                       # Cumulative time (in ticks) in various power states (Tick)
system.realview.energy_ctrl.power_state.pwrStateResidencyTicks::UNDEFINED 9041865672800                       # Cumulative time (in ticks) in various power states (Tick)
system.realview.flash0.power_state.pwrStateResidencyTicks::UNDEFINED 9041865672800                       # Cumulative time (in ticks) in various power states (Tick)
system.realview.flash1.power_state.pwrStateResidencyTicks::UNDEFINED 9041865672800                       # Cumulative time (in ticks) in various power states (Tick)
system.realview.generic_timer_mem.frames0.power_state.pwrStateResidencyTicks::UNDEFINED 9041865672800                       # Cumulative time (in ticks) in various power states (Tick)
system.realview.generic_timer_mem.frames1.power_state.pwrStateResidencyTicks::UNDEFINED 9041865672800                       # Cumulative time (in ticks) in various power states (Tick)
system.realview.generic_timer_mem.power_state.pwrStateResidencyTicks::UNDEFINED 9041865672800                       # Cumulative time (in ticks) in various power states (Tick)
system.realview.gic.power_state.pwrStateResidencyTicks::UNDEFINED 9041865672800                       # Cumulative time (in ticks) in various power states (Tick)
system.realview.gicv2m.power_state.pwrStateResidencyTicks::UNDEFINED 9041865672800                       # Cumulative time (in ticks) in various power states (Tick)
system.realview.io_voltage.voltage           3.300000                       # Voltage in Volts (Volt)
system.realview.kmi0.power_state.pwrStateResidencyTicks::UNDEFINED 9041865672800                       # Cumulative time (in ticks) in various power states (Tick)
system.realview.kmi1.power_state.pwrStateResidencyTicks::UNDEFINED 9041865672800                       # Cumulative time (in ticks) in various power states (Tick)
system.realview.mcc.osc_clcd.clock              42105                       # Clock period in ticks (Tick)
system.realview.mcc.osc_mcc.clock               20000                       # Clock period in ticks (Tick)
system.realview.mcc.osc_peripheral.clock        41667                       # Clock period in ticks (Tick)
system.realview.mcc.osc_system_bus.clock        41667                       # Clock period in ticks (Tick)
system.realview.non_trusted_sram.power_state.pwrStateResidencyTicks::UNDEFINED 9041865672800                       # Cumulative time (in ticks) in various power states (Tick)
system.realview.pci_host.power_state.pwrStateResidencyTicks::UNDEFINED 9041865672800                       # Cumulative time (in ticks) in various power states (Tick)
system.realview.pwr_ctrl.power_state.pwrStateResidencyTicks::UNDEFINED 9041865672800                       # Cumulative time (in ticks) in various power states (Tick)
system.realview.realview_io.power_state.pwrStateResidencyTicks::UNDEFINED 9041865672800                       # Cumulative time (in ticks) in various power states (Tick)
system.realview.rtc.power_state.pwrStateResidencyTicks::UNDEFINED 9041865672800                       # Cumulative time (in ticks) in various power states (Tick)
system.realview.system_watchdog.power_state.pwrStateResidencyTicks::UNDEFINED 9041865672800                       # Cumulative time (in ticks) in various power states (Tick)
system.realview.trusted_dram.power_state.pwrStateResidencyTicks::UNDEFINED 9041865672800                       # Cumulative time (in ticks) in various power states (Tick)
system.realview.trusted_sram.power_state.pwrStateResidencyTicks::UNDEFINED 9041865672800                       # Cumulative time (in ticks) in various power states (Tick)
system.realview.trusted_watchdog.power_state.pwrStateResidencyTicks::UNDEFINED 9041865672800                       # Cumulative time (in ticks) in various power states (Tick)
system.realview.uart0.power_state.pwrStateResidencyTicks::UNDEFINED 9041865672800                       # Cumulative time (in ticks) in various power states (Tick)
system.realview.uart1.power_state.pwrStateResidencyTicks::UNDEFINED 9041865672800                       # Cumulative time (in ticks) in various power states (Tick)
system.realview.uart2.power_state.pwrStateResidencyTicks::UNDEFINED 9041865672800                       # Cumulative time (in ticks) in various power states (Tick)
system.realview.uart3.power_state.pwrStateResidencyTicks::UNDEFINED 9041865672800                       # Cumulative time (in ticks) in various power states (Tick)
system.realview.vgic.power_state.pwrStateResidencyTicks::UNDEFINED 9041865672800                       # Cumulative time (in ticks) in various power states (Tick)
system.realview.vio0.power_state.pwrStateResidencyTicks::UNDEFINED 9041865672800                       # Cumulative time (in ticks) in various power states (Tick)
system.realview.vio1.power_state.pwrStateResidencyTicks::UNDEFINED 9041865672800                       # Cumulative time (in ticks) in various power states (Tick)
system.realview.vram.power_state.pwrStateResidencyTicks::UNDEFINED 9041865672800                       # Cumulative time (in ticks) in various power states (Tick)
system.realview.watchdog.power_state.pwrStateResidencyTicks::UNDEFINED 9041865672800                       # Cumulative time (in ticks) in various power states (Tick)
system.tol2bus.transDist::ReadReq            59690027                       # Transaction distribution (Count)
system.tol2bus.transDist::ReadResp          124961724                       # Transaction distribution (Count)
system.tol2bus.transDist::WriteReq               1664                       # Transaction distribution (Count)
system.tol2bus.transDist::WriteResp              1664                       # Transaction distribution (Count)
system.tol2bus.transDist::WritebackDirty      2125626                       # Transaction distribution (Count)
system.tol2bus.transDist::WritebackClean     64820611                       # Transaction distribution (Count)
system.tol2bus.transDist::CleanEvict         99285088                       # Transaction distribution (Count)
system.tol2bus.transDist::UpgradeReq             8802                       # Transaction distribution (Count)
system.tol2bus.transDist::UpgradeResp            8802                       # Transaction distribution (Count)
system.tol2bus.transDist::ReadExReq             71329                       # Transaction distribution (Count)
system.tol2bus.transDist::ReadExResp            71329                       # Transaction distribution (Count)
system.tol2bus.transDist::ReadCleanReq          53462                       # Transaction distribution (Count)
system.tol2bus.transDist::ReadSharedReq      65218497                       # Transaction distribution (Count)
system.tol2bus.transDist::CleanSharedReq          192                       # Transaction distribution (Count)
system.tol2bus.transDist::InvalidateReq        636304                       # Transaction distribution (Count)
system.tol2bus.transDist::InvalidateResp       636304                       # Transaction distribution (Count)
system.tol2bus.pktCount_system.cpu.icache.mem_side_port::system.l2.cpu_side_port       160388                       # Packet count per connected requestor and responder (Count)
system.tol2bus.pktCount_system.cpu.dcache.mem_side_port::system.l2.cpu_side_port    197804139                       # Packet count per connected requestor and responder (Count)
system.tol2bus.pktCount_system.cpu.mmu.itb_walker.port::system.l2.cpu_side_port         5462                       # Packet count per connected requestor and responder (Count)
system.tol2bus.pktCount_system.cpu.mmu.dtb_walker.port::system.l2.cpu_side_port    119323103                       # Packet count per connected requestor and responder (Count)
system.tol2bus.pktCount::total              317293092                       # Packet count per connected requestor and responder (Count)
system.tol2bus.pktSize_system.cpu.icache.mem_side_port::system.l2.cpu_side_port      6843264                       # Cumulative packet size per connected requestor and responder (Byte)
system.tol2bus.pktSize_system.cpu.dcache.mem_side_port::system.l2.cpu_side_port   8397784587                       # Cumulative packet size per connected requestor and responder (Byte)
system.tol2bus.pktSize_system.cpu.mmu.itb_walker.port::system.l2.cpu_side_port        21376                       # Cumulative packet size per connected requestor and responder (Byte)
system.tol2bus.pktSize_system.cpu.mmu.dtb_walker.port::system.l2.cpu_side_port    477111160                       # Cumulative packet size per connected requestor and responder (Byte)
system.tol2bus.pktSize::total              8881760387                       # Cumulative packet size per connected requestor and responder (Byte)
system.tol2bus.snoops                       100298655                       # Total snoops (Count)
system.tol2bus.snoopTraffic                  62286712                       # Total snoop traffic (Byte)
system.tol2bus.snoopFanout::samples         225932594                       # Request fanout histogram (Count)
system.tol2bus.snoopFanout::mean             0.012968                       # Request fanout histogram (Count)
system.tol2bus.snoopFanout::stdev            0.113139                       # Request fanout histogram (Count)
system.tol2bus.snoopFanout::underflows              0      0.00%      0.00% # Request fanout histogram (Count)
system.tol2bus.snoopFanout::0               223002821     98.70%     98.70% # Request fanout histogram (Count)
system.tol2bus.snoopFanout::1                 2929688      1.30%    100.00% # Request fanout histogram (Count)
system.tol2bus.snoopFanout::2                      85      0.00%    100.00% # Request fanout histogram (Count)
system.tol2bus.snoopFanout::overflows               0      0.00%    100.00% # Request fanout histogram (Count)
system.tol2bus.snoopFanout::min_value               0                       # Request fanout histogram (Count)
system.tol2bus.snoopFanout::max_value               2                       # Request fanout histogram (Count)
system.tol2bus.snoopFanout::total           225932594                       # Request fanout histogram (Count)
system.tol2bus.power_state.pwrStateResidencyTicks::UNDEFINED 9041865672800                       # Cumulative time (in ticks) in various power states (Tick)
system.tol2bus.reqLayer0.occupancy       153753399992                       # Layer occupancy (ticks) (Tick)
system.tol2bus.reqLayer0.utilization              0.0                       # Layer utilization (Ratio)
system.tol2bus.respLayer0.occupancy          64163181                       # Layer occupancy (ticks) (Tick)
system.tol2bus.respLayer0.utilization             0.0                       # Layer utilization (Ratio)
system.tol2bus.respLayer1.occupancy       78608955077                       # Layer occupancy (ticks) (Tick)
system.tol2bus.respLayer1.utilization             0.0                       # Layer utilization (Ratio)
system.tol2bus.respLayer2.occupancy           2236103                       # Layer occupancy (ticks) (Tick)
system.tol2bus.respLayer2.utilization             0.0                       # Layer utilization (Ratio)
system.tol2bus.respLayer3.occupancy       47747414888                       # Layer occupancy (ticks) (Tick)
system.tol2bus.respLayer3.utilization             0.0                       # Layer utilization (Ratio)
system.tol2bus.snoopLayer0.occupancy           413110                       # Layer occupancy (ticks) (Tick)
system.tol2bus.snoopLayer0.utilization            0.0                       # Layer utilization (Ratio)
system.tol2bus.snoop_filter.totRequests     132012576                       # Total number of requests made to the snoop filter. (Count)
system.tol2bus.snoop_filter.hitSingleRequests     66033378                       # Number of requests hitting in the snoop filter with a single holder of the requested data. (Count)
system.tol2bus.snoop_filter.hitMultiRequests          845                       # Number of requests hitting in the snoop filter with multiple (>1) holders of the requested data. (Count)
system.tol2bus.snoop_filter.totSnoops         2883360                       # Total number of snoops made to the snoop filter. (Count)
system.tol2bus.snoop_filter.hitSingleSnoops      2883275                       # Number of snoops hitting in the snoop filter with a single holder of the requested data. (Count)
system.tol2bus.snoop_filter.hitMultiSnoops           85                       # Number of snoops hitting in the snoop filter with multiple (>1) holders of the requested data. (Count)
system.voltage_domain.voltage                       1                       # Voltage in Volts (Volt)
system.workload.inst.arm                            0                       # number of arm instructions executed (Count)
system.workload.inst.quiesce                        0                       # number of quiesce instructions executed (Count)

---------- End Simulation Statistics   ----------
