
---------- Begin Simulation Statistics ----------
simSeconds                                   0.124315                       # Number of seconds simulated (Second)
simTicks                                 124314888000                       # Number of ticks simulated (Tick)
finalTick                                715480356800                       # Number of ticks from beginning of simulation (restored from checkpoints and never reset) (Tick)
simFreq                                  1000000000000                       # The number of ticks per simulated second ((Tick/Second))
hostSeconds                                   1301.69                       # Real time elapsed on the host (Second)
hostTickRate                                 95502483                       # The number of ticks simulated per host second (ticks/s) ((Tick/Second))
hostMemory                                    9141088                       # Number of bytes of host memory used (Byte)
simInsts                                    400541686                       # Number of instructions simulated (Count)
simOps                                      454888245                       # Number of ops (including micro ops) simulated (Count)
hostInstRate                                   307708                       # Simulator instruction rate (inst/s) ((Count/Second))
hostOpRate                                     349459                       # Simulator op (including micro ops) rate (op/s) ((Count/Second))
system.bridge.power_state.pwrStateResidencyTicks::UNDEFINED 715480356800                       # Cumulative time (in ticks) in various power states (Tick)
system.clk_domain.clock                          1000                       # Clock period in ticks (Tick)
system.cpu.numCycles                        310787220                       # Number of cpu cycles simulated (Cycle)
system.cpu.numWorkItemsStarted                      0                       # Number of work items this cpu started (Count)
system.cpu.numWorkItemsCompleted                    0                       # Number of work items this cpu completed (Count)
system.cpu.instsAdded                        34134585                       # Number of instructions added to the IQ (excludes non-spec) (Count)
system.cpu.nonSpecInstsAdded                     9847                       # Number of non-speculative instructions added to the IQ (Count)
system.cpu.instsIssued                       30295486                       # Number of instructions issued (Count)
system.cpu.squashedInstsIssued                 398023                       # Number of squashed instructions issued (Count)
system.cpu.squashedInstsExamined              4856361                       # Number of squashed instructions iterated over during squash; mainly for profiling (Count)
system.cpu.squashedOperandsExamined           8568734                       # Number of squashed operands that are examined and possibly removed from graph (Count)
system.cpu.squashedNonSpecRemoved                 196                       # Number of squashed non-spec instructions that were removed (Count)
system.cpu.numIssuedDist::samples           310682923                       # Number of insts issued each cycle (Count)
system.cpu.numIssuedDist::mean               0.097513                       # Number of insts issued each cycle (Count)
system.cpu.numIssuedDist::stdev              0.418355                       # Number of insts issued each cycle (Count)
system.cpu.numIssuedDist::underflows                0      0.00%      0.00% # Number of insts issued each cycle (Count)
system.cpu.numIssuedDist::0                 290553941     93.52%     93.52% # Number of insts issued each cycle (Count)
system.cpu.numIssuedDist::1                  13305654      4.28%     97.80% # Number of insts issued each cycle (Count)
system.cpu.numIssuedDist::2                   3487821      1.12%     98.93% # Number of insts issued each cycle (Count)
system.cpu.numIssuedDist::3                   3327839      1.07%    100.00% # Number of insts issued each cycle (Count)
system.cpu.numIssuedDist::4                      7667      0.00%    100.00% # Number of insts issued each cycle (Count)
system.cpu.numIssuedDist::5                         1      0.00%    100.00% # Number of insts issued each cycle (Count)
system.cpu.numIssuedDist::6                         0      0.00%    100.00% # Number of insts issued each cycle (Count)
system.cpu.numIssuedDist::7                         0      0.00%    100.00% # Number of insts issued each cycle (Count)
system.cpu.numIssuedDist::8                         0      0.00%    100.00% # Number of insts issued each cycle (Count)
system.cpu.numIssuedDist::overflows                 0      0.00%    100.00% # Number of insts issued each cycle (Count)
system.cpu.numIssuedDist::min_value                 0                       # Number of insts issued each cycle (Count)
system.cpu.numIssuedDist::max_value                 5                       # Number of insts issued each cycle (Count)
system.cpu.numIssuedDist::total             310682923                       # Number of insts issued each cycle (Count)
system.cpu.statFuBusy::No_OpClass                   0      0.00%      0.00% # attempts to use FU when none available (Count)
system.cpu.statFuBusy::IntAlu                 1706212     18.88%     18.88% # attempts to use FU when none available (Count)
system.cpu.statFuBusy::IntMult                    779      0.01%     18.89% # attempts to use FU when none available (Count)
system.cpu.statFuBusy::IntDiv                    1001      0.01%     18.90% # attempts to use FU when none available (Count)
system.cpu.statFuBusy::FloatAdd                     0      0.00%     18.90% # attempts to use FU when none available (Count)
system.cpu.statFuBusy::FloatCmp                     0      0.00%     18.90% # attempts to use FU when none available (Count)
system.cpu.statFuBusy::FloatCvt                     0      0.00%     18.90% # attempts to use FU when none available (Count)
system.cpu.statFuBusy::FloatMult                    0      0.00%     18.90% # attempts to use FU when none available (Count)
system.cpu.statFuBusy::FloatMultAcc                 0      0.00%     18.90% # attempts to use FU when none available (Count)
system.cpu.statFuBusy::FloatDiv                     0      0.00%     18.90% # attempts to use FU when none available (Count)
system.cpu.statFuBusy::FloatMisc                    0      0.00%     18.90% # attempts to use FU when none available (Count)
system.cpu.statFuBusy::FloatSqrt                    0      0.00%     18.90% # attempts to use FU when none available (Count)
system.cpu.statFuBusy::SimdAdd                      0      0.00%     18.90% # attempts to use FU when none available (Count)
system.cpu.statFuBusy::SimdAddAcc                   0      0.00%     18.90% # attempts to use FU when none available (Count)
system.cpu.statFuBusy::SimdAlu                      0      0.00%     18.90% # attempts to use FU when none available (Count)
system.cpu.statFuBusy::SimdCmp                      0      0.00%     18.90% # attempts to use FU when none available (Count)
system.cpu.statFuBusy::SimdCvt                      0      0.00%     18.90% # attempts to use FU when none available (Count)
system.cpu.statFuBusy::SimdMisc                     0      0.00%     18.90% # attempts to use FU when none available (Count)
system.cpu.statFuBusy::SimdMult                     0      0.00%     18.90% # attempts to use FU when none available (Count)
system.cpu.statFuBusy::SimdMultAcc                  0      0.00%     18.90% # attempts to use FU when none available (Count)
system.cpu.statFuBusy::SimdShift                    0      0.00%     18.90% # attempts to use FU when none available (Count)
system.cpu.statFuBusy::SimdShiftAcc                 0      0.00%     18.90% # attempts to use FU when none available (Count)
system.cpu.statFuBusy::SimdDiv                      0      0.00%     18.90% # attempts to use FU when none available (Count)
system.cpu.statFuBusy::SimdSqrt                     0      0.00%     18.90% # attempts to use FU when none available (Count)
system.cpu.statFuBusy::SimdFloatAdd                 0      0.00%     18.90% # attempts to use FU when none available (Count)
system.cpu.statFuBusy::SimdFloatAlu                 0      0.00%     18.90% # attempts to use FU when none available (Count)
system.cpu.statFuBusy::SimdFloatCmp                 0      0.00%     18.90% # attempts to use FU when none available (Count)
system.cpu.statFuBusy::SimdFloatCvt                 0      0.00%     18.90% # attempts to use FU when none available (Count)
system.cpu.statFuBusy::SimdFloatDiv                 0      0.00%     18.90% # attempts to use FU when none available (Count)
system.cpu.statFuBusy::SimdFloatMisc                0      0.00%     18.90% # attempts to use FU when none available (Count)
system.cpu.statFuBusy::SimdFloatMult                0      0.00%     18.90% # attempts to use FU when none available (Count)
system.cpu.statFuBusy::SimdFloatMultAcc             0      0.00%     18.90% # attempts to use FU when none available (Count)
system.cpu.statFuBusy::SimdFloatSqrt                0      0.00%     18.90% # attempts to use FU when none available (Count)
system.cpu.statFuBusy::SimdReduceAdd                0      0.00%     18.90% # attempts to use FU when none available (Count)
system.cpu.statFuBusy::SimdReduceAlu                0      0.00%     18.90% # attempts to use FU when none available (Count)
system.cpu.statFuBusy::SimdReduceCmp                0      0.00%     18.90% # attempts to use FU when none available (Count)
system.cpu.statFuBusy::SimdFloatReduceAdd            0      0.00%     18.90% # attempts to use FU when none available (Count)
system.cpu.statFuBusy::SimdFloatReduceCmp            0      0.00%     18.90% # attempts to use FU when none available (Count)
system.cpu.statFuBusy::SimdAes                      0      0.00%     18.90% # attempts to use FU when none available (Count)
system.cpu.statFuBusy::SimdAesMix                   0      0.00%     18.90% # attempts to use FU when none available (Count)
system.cpu.statFuBusy::SimdSha1Hash                 0      0.00%     18.90% # attempts to use FU when none available (Count)
system.cpu.statFuBusy::SimdSha1Hash2                0      0.00%     18.90% # attempts to use FU when none available (Count)
system.cpu.statFuBusy::SimdSha256Hash               0      0.00%     18.90% # attempts to use FU when none available (Count)
system.cpu.statFuBusy::SimdSha256Hash2              0      0.00%     18.90% # attempts to use FU when none available (Count)
system.cpu.statFuBusy::SimdShaSigma2                0      0.00%     18.90% # attempts to use FU when none available (Count)
system.cpu.statFuBusy::SimdShaSigma3                0      0.00%     18.90% # attempts to use FU when none available (Count)
system.cpu.statFuBusy::SimdPredAlu                  0      0.00%     18.90% # attempts to use FU when none available (Count)
system.cpu.statFuBusy::MemRead                7265365     80.38%     99.28% # attempts to use FU when none available (Count)
system.cpu.statFuBusy::MemWrite                 65087      0.72%    100.00% # attempts to use FU when none available (Count)
system.cpu.statFuBusy::FloatMemRead                 0      0.00%    100.00% # attempts to use FU when none available (Count)
system.cpu.statFuBusy::FloatMemWrite                0      0.00%    100.00% # attempts to use FU when none available (Count)
system.cpu.statFuBusy::IprAccess                    0      0.00%    100.00% # attempts to use FU when none available (Count)
system.cpu.statFuBusy::InstPrefetch                 0      0.00%    100.00% # attempts to use FU when none available (Count)
system.cpu.statIssuedInstType_0::No_OpClass           54      0.00%      0.00% # Number of instructions issued per FU type, per thread (Count)
system.cpu.statIssuedInstType_0::IntAlu      18516899     61.12%     61.12% # Number of instructions issued per FU type, per thread (Count)
system.cpu.statIssuedInstType_0::IntMult         1939      0.01%     61.13% # Number of instructions issued per FU type, per thread (Count)
system.cpu.statIssuedInstType_0::IntDiv           196      0.00%     61.13% # Number of instructions issued per FU type, per thread (Count)
system.cpu.statIssuedInstType_0::FloatAdd            0      0.00%     61.13% # Number of instructions issued per FU type, per thread (Count)
system.cpu.statIssuedInstType_0::FloatCmp            0      0.00%     61.13% # Number of instructions issued per FU type, per thread (Count)
system.cpu.statIssuedInstType_0::FloatCvt            0      0.00%     61.13% # Number of instructions issued per FU type, per thread (Count)
system.cpu.statIssuedInstType_0::FloatMult            0      0.00%     61.13% # Number of instructions issued per FU type, per thread (Count)
system.cpu.statIssuedInstType_0::FloatMultAcc            0      0.00%     61.13% # Number of instructions issued per FU type, per thread (Count)
system.cpu.statIssuedInstType_0::FloatDiv            0      0.00%     61.13% # Number of instructions issued per FU type, per thread (Count)
system.cpu.statIssuedInstType_0::FloatMisc            0      0.00%     61.13% # Number of instructions issued per FU type, per thread (Count)
system.cpu.statIssuedInstType_0::FloatSqrt            0      0.00%     61.13% # Number of instructions issued per FU type, per thread (Count)
system.cpu.statIssuedInstType_0::SimdAdd            0      0.00%     61.13% # Number of instructions issued per FU type, per thread (Count)
system.cpu.statIssuedInstType_0::SimdAddAcc            0      0.00%     61.13% # Number of instructions issued per FU type, per thread (Count)
system.cpu.statIssuedInstType_0::SimdAlu            0      0.00%     61.13% # Number of instructions issued per FU type, per thread (Count)
system.cpu.statIssuedInstType_0::SimdCmp            0      0.00%     61.13% # Number of instructions issued per FU type, per thread (Count)
system.cpu.statIssuedInstType_0::SimdCvt            0      0.00%     61.13% # Number of instructions issued per FU type, per thread (Count)
system.cpu.statIssuedInstType_0::SimdMisc            0      0.00%     61.13% # Number of instructions issued per FU type, per thread (Count)
system.cpu.statIssuedInstType_0::SimdMult            0      0.00%     61.13% # Number of instructions issued per FU type, per thread (Count)
system.cpu.statIssuedInstType_0::SimdMultAcc            0      0.00%     61.13% # Number of instructions issued per FU type, per thread (Count)
system.cpu.statIssuedInstType_0::SimdShift            0      0.00%     61.13% # Number of instructions issued per FU type, per thread (Count)
system.cpu.statIssuedInstType_0::SimdShiftAcc            0      0.00%     61.13% # Number of instructions issued per FU type, per thread (Count)
system.cpu.statIssuedInstType_0::SimdDiv            0      0.00%     61.13% # Number of instructions issued per FU type, per thread (Count)
system.cpu.statIssuedInstType_0::SimdSqrt            0      0.00%     61.13% # Number of instructions issued per FU type, per thread (Count)
system.cpu.statIssuedInstType_0::SimdFloatAdd            0      0.00%     61.13% # Number of instructions issued per FU type, per thread (Count)
system.cpu.statIssuedInstType_0::SimdFloatAlu            0      0.00%     61.13% # Number of instructions issued per FU type, per thread (Count)
system.cpu.statIssuedInstType_0::SimdFloatCmp            0      0.00%     61.13% # Number of instructions issued per FU type, per thread (Count)
system.cpu.statIssuedInstType_0::SimdFloatCvt            0      0.00%     61.13% # Number of instructions issued per FU type, per thread (Count)
system.cpu.statIssuedInstType_0::SimdFloatDiv            0      0.00%     61.13% # Number of instructions issued per FU type, per thread (Count)
system.cpu.statIssuedInstType_0::SimdFloatMisc            0      0.00%     61.13% # Number of instructions issued per FU type, per thread (Count)
system.cpu.statIssuedInstType_0::SimdFloatMult            0      0.00%     61.13% # Number of instructions issued per FU type, per thread (Count)
system.cpu.statIssuedInstType_0::SimdFloatMultAcc            0      0.00%     61.13% # Number of instructions issued per FU type, per thread (Count)
system.cpu.statIssuedInstType_0::SimdFloatSqrt            0      0.00%     61.13% # Number of instructions issued per FU type, per thread (Count)
system.cpu.statIssuedInstType_0::SimdReduceAdd            0      0.00%     61.13% # Number of instructions issued per FU type, per thread (Count)
system.cpu.statIssuedInstType_0::SimdReduceAlu            0      0.00%     61.13% # Number of instructions issued per FU type, per thread (Count)
system.cpu.statIssuedInstType_0::SimdReduceCmp            0      0.00%     61.13% # Number of instructions issued per FU type, per thread (Count)
system.cpu.statIssuedInstType_0::SimdFloatReduceAdd            0      0.00%     61.13% # Number of instructions issued per FU type, per thread (Count)
system.cpu.statIssuedInstType_0::SimdFloatReduceCmp            0      0.00%     61.13% # Number of instructions issued per FU type, per thread (Count)
system.cpu.statIssuedInstType_0::SimdAes            0      0.00%     61.13% # Number of instructions issued per FU type, per thread (Count)
system.cpu.statIssuedInstType_0::SimdAesMix            0      0.00%     61.13% # Number of instructions issued per FU type, per thread (Count)
system.cpu.statIssuedInstType_0::SimdSha1Hash            0      0.00%     61.13% # Number of instructions issued per FU type, per thread (Count)
system.cpu.statIssuedInstType_0::SimdSha1Hash2            0      0.00%     61.13% # Number of instructions issued per FU type, per thread (Count)
system.cpu.statIssuedInstType_0::SimdSha256Hash            0      0.00%     61.13% # Number of instructions issued per FU type, per thread (Count)
system.cpu.statIssuedInstType_0::SimdSha256Hash2            0      0.00%     61.13% # Number of instructions issued per FU type, per thread (Count)
system.cpu.statIssuedInstType_0::SimdShaSigma2            0      0.00%     61.13% # Number of instructions issued per FU type, per thread (Count)
system.cpu.statIssuedInstType_0::SimdShaSigma3            0      0.00%     61.13% # Number of instructions issued per FU type, per thread (Count)
system.cpu.statIssuedInstType_0::SimdPredAlu            0      0.00%     61.13% # Number of instructions issued per FU type, per thread (Count)
system.cpu.statIssuedInstType_0::MemRead     11493828     37.94%     99.07% # Number of instructions issued per FU type, per thread (Count)
system.cpu.statIssuedInstType_0::MemWrite       282570      0.93%    100.00% # Number of instructions issued per FU type, per thread (Count)
system.cpu.statIssuedInstType_0::FloatMemRead            0      0.00%    100.00% # Number of instructions issued per FU type, per thread (Count)
system.cpu.statIssuedInstType_0::FloatMemWrite            0      0.00%    100.00% # Number of instructions issued per FU type, per thread (Count)
system.cpu.statIssuedInstType_0::IprAccess            0      0.00%    100.00% # Number of instructions issued per FU type, per thread (Count)
system.cpu.statIssuedInstType_0::InstPrefetch            0      0.00%    100.00% # Number of instructions issued per FU type, per thread (Count)
system.cpu.statIssuedInstType_0::total       30295486                       # Number of instructions issued per FU type, per thread (Count)
system.cpu.issueRate                         0.097480                       # Inst issue rate ((Count/Cycle))
system.cpu.fuBusy                             9038444                       # FU busy when requested (Count)
system.cpu.fuBusyRate                        0.298343                       # FU busy rate (busy events/executed inst) ((Count/Count))
system.cpu.intInstQueueReads                380710018                       # Number of integer instruction queue reads (Count)
system.cpu.intInstQueueWrites                39000758                       # Number of integer instruction queue writes (Count)
system.cpu.intInstQueueWakeupAccesses        29748926                       # Number of integer instruction queue wakeup accesses (Count)
system.cpu.fpInstQueueReads                         0                       # Number of floating instruction queue reads (Count)
system.cpu.fpInstQueueWrites                        0                       # Number of floating instruction queue writes (Count)
system.cpu.fpInstQueueWakeupAccesses                0                       # Number of floating instruction queue wakeup accesses (Count)
system.cpu.vecInstQueueReads                      344                       # Number of vector instruction queue reads (Count)
system.cpu.vecInstQueueWrites                     128                       # Number of vector instruction queue writes (Count)
system.cpu.vecInstQueueWakeupAccesses             128                       # Number of vector instruction queue wakeup accesses (Count)
system.cpu.intAluAccesses                    39333660                       # Number of integer alu accesses (Count)
system.cpu.fpAluAccesses                            0                       # Number of floating point alu accesses (Count)
system.cpu.vecAluAccesses                         216                       # Number of vector alu accesses (Count)
system.cpu.numInsts                          29769794                       # Number of executed instructions (Count)
system.cpu.numLoadInsts                      10974088                       # Number of load instructions executed (Count)
system.cpu.numSquashedInsts                    297697                       # Number of squashed instructions skipped in execute (Count)
system.cpu.numSwp                                   0                       # Number of swp insts executed (Count)
system.cpu.numNop                              131822                       # Number of nop insts executed (Count)
system.cpu.numRefs                           11254151                       # Number of memory reference insts executed (Count)
system.cpu.numBranches                        6578563                       # Number of branches executed (Count)
system.cpu.numStoreInsts                       280063                       # Number of stores executed (Count)
system.cpu.numRate                           0.095788                       # Inst execution rate ((Count/Cycle))
system.cpu.timesIdled                            1256                       # Number of times that the entire CPU went into an idle state and unscheduled itself (Count)
system.cpu.idleCycles                          104297                       # Total number of cycles that the CPU has spent unscheduled due to idling (Cycle)
system.cpu.committedInsts                    29138655                       # Number of Instructions Simulated (Count)
system.cpu.committedOps                      29288075                       # Number of Ops (including micro ops) Simulated (Count)
system.cpu.cpi                              10.665805                       # CPI: Cycles Per Instruction ((Cycle/Count))
system.cpu.totalCpi                         10.665805                       # CPI: Total CPI of All Threads ((Cycle/Count))
system.cpu.ipc                               0.093758                       # IPC: Instructions Per Cycle ((Count/Cycle))
system.cpu.totalIpc                          0.093758                       # IPC: Total IPC of All Threads ((Count/Cycle))
system.cpu.intRegfileReads                   39330182                       # Number of integer regfile reads (Count)
system.cpu.intRegfileWrites                  16586763                       # Number of integer regfile writes (Count)
system.cpu.vecRegfileReads                        128                       # number of vector regfile reads (Count)
system.cpu.ccRegfileReads                    19081491                       # number of cc regfile reads (Count)
system.cpu.ccRegfileWrites                   19104966                       # number of cc regfile writes (Count)
system.cpu.miscRegfileReads                 323346897                       # number of misc regfile reads (Count)
system.cpu.miscRegfileWrites                    17695                       # number of misc regfile writes (Count)
system.cpu.MemDepUnit__0.insertedLoads       12514855                       # Number of loads inserted to the mem dependence unit. (Count)
system.cpu.MemDepUnit__0.insertedStores        283936                       # Number of stores inserted to the mem dependence unit. (Count)
system.cpu.MemDepUnit__0.conflictingLoads        10506                       # Number of conflicting loads. (Count)
system.cpu.MemDepUnit__0.conflictingStores         6594                       # Number of conflicting stores. (Count)
system.cpu.MemDepUnit__1.insertedLoads              0                       # Number of loads inserted to the mem dependence unit. (Count)
system.cpu.MemDepUnit__1.insertedStores             0                       # Number of stores inserted to the mem dependence unit. (Count)
system.cpu.MemDepUnit__1.conflictingLoads            0                       # Number of conflicting loads. (Count)
system.cpu.MemDepUnit__1.conflictingStores            0                       # Number of conflicting stores. (Count)
system.cpu.MemDepUnit__2.insertedLoads              0                       # Number of loads inserted to the mem dependence unit. (Count)
system.cpu.MemDepUnit__2.insertedStores             0                       # Number of stores inserted to the mem dependence unit. (Count)
system.cpu.MemDepUnit__2.conflictingLoads            0                       # Number of conflicting loads. (Count)
system.cpu.MemDepUnit__2.conflictingStores            0                       # Number of conflicting stores. (Count)
system.cpu.MemDepUnit__3.insertedLoads              0                       # Number of loads inserted to the mem dependence unit. (Count)
system.cpu.MemDepUnit__3.insertedStores             0                       # Number of stores inserted to the mem dependence unit. (Count)
system.cpu.MemDepUnit__3.conflictingLoads            0                       # Number of conflicting loads. (Count)
system.cpu.MemDepUnit__3.conflictingStores            0                       # Number of conflicting stores. (Count)
system.cpu.branchPred.lookups                 9270979                       # Number of BP lookups (Count)
system.cpu.branchPred.condPredicted           9178763                       # Number of conditional branches predicted (Count)
system.cpu.branchPred.condIncorrect            173792                       # Number of conditional branches incorrect (Count)
system.cpu.branchPred.BTBLookups              3391953                       # Number of BTB lookups (Count)
system.cpu.branchPred.BTBUpdates                15451                       # Number of BTB updates (Count)
system.cpu.branchPred.BTBHits                 3382266                       # Number of BTB hits (Count)
system.cpu.branchPred.BTBHitRatio            0.997144                       # BTB Hit Ratio (Ratio)
system.cpu.branchPred.RASUsed                   35089                       # Number of times the RAS was used to get a target. (Count)
system.cpu.branchPred.RASIncorrect                564                       # Number of incorrect RAS predictions. (Count)
system.cpu.branchPred.indirectLookups            3668                       # Number of indirect predictor lookups. (Count)
system.cpu.branchPred.indirectHits               2804                       # Number of indirect target hits. (Count)
system.cpu.branchPred.indirectMisses              864                       # Number of indirect misses. (Count)
system.cpu.branchPred.indirectMispredicted           65                       # Number of mispredicted indirect branches. (Count)
system.cpu.commit.commitSquashedInsts         4649392                       # The number of squashed insts skipped by commit (Count)
system.cpu.commit.commitNonSpecStalls            9651                       # The number of times commit has been forced to stall to communicate backwards (Count)
system.cpu.commit.branchMispredicts            171573                       # The number of times a branch was mispredicted (Count)
system.cpu.commit.numCommittedDist::samples    310030379                       # Number of insts commited each cycle (Count)
system.cpu.commit.numCommittedDist::mean     0.094892                       # Number of insts commited each cycle (Count)
system.cpu.commit.numCommittedDist::stdev     0.535883                       # Number of insts commited each cycle (Count)
system.cpu.commit.numCommittedDist::underflows            0      0.00%      0.00% # Number of insts commited each cycle (Count)
system.cpu.commit.numCommittedDist::0       295389435     95.28%     95.28% # Number of insts commited each cycle (Count)
system.cpu.commit.numCommittedDist::1         8023672      2.59%     97.87% # Number of insts commited each cycle (Count)
system.cpu.commit.numCommittedDist::2         2819353      0.91%     98.77% # Number of insts commited each cycle (Count)
system.cpu.commit.numCommittedDist::3         1973985      0.64%     99.41% # Number of insts commited each cycle (Count)
system.cpu.commit.numCommittedDist::4           24558      0.01%     99.42% # Number of insts commited each cycle (Count)
system.cpu.commit.numCommittedDist::5         1493057      0.48%     99.90% # Number of insts commited each cycle (Count)
system.cpu.commit.numCommittedDist::6           58255      0.02%     99.92% # Number of insts commited each cycle (Count)
system.cpu.commit.numCommittedDist::7           62424      0.02%     99.94% # Number of insts commited each cycle (Count)
system.cpu.commit.numCommittedDist::8          185640      0.06%    100.00% # Number of insts commited each cycle (Count)
system.cpu.commit.numCommittedDist::overflows            0      0.00%    100.00% # Number of insts commited each cycle (Count)
system.cpu.commit.numCommittedDist::min_value            0                       # Number of insts commited each cycle (Count)
system.cpu.commit.numCommittedDist::max_value            8                       # Number of insts commited each cycle (Count)
system.cpu.commit.numCommittedDist::total    310030379                       # Number of insts commited each cycle (Count)
system.cpu.commit.instsCommitted             29270048                       # Number of instructions committed (Count)
system.cpu.commit.opsCommitted               29419468                       # Number of ops (including micro ops) committed (Count)
system.cpu.commit.memRefs                    10828079                       # Number of memory references committed (Count)
system.cpu.commit.loads                      10550386                       # Number of loads committed (Count)
system.cpu.commit.amos                              6                       # Number of atomic instructions committed (Count)
system.cpu.commit.membars                        3947                       # Number of memory barriers committed (Count)
system.cpu.commit.branches                    6548655                       # Number of branches committed (Count)
system.cpu.commit.vectorInstructions              128                       # Number of committed Vector instructions. (Count)
system.cpu.commit.floating                          0                       # Number of committed floating point instructions. (Count)
system.cpu.commit.integer                    26930560                       # Number of committed integer instructions. (Count)
system.cpu.commit.functionCalls                 27049                       # Number of function calls committed. (Count)
system.cpu.commit.committedInstType_0::No_OpClass            7      0.00%      0.00% # Class of committed instruction (Count)
system.cpu.commit.committedInstType_0::IntAlu     18589258     63.19%     63.19% # Class of committed instruction (Count)
system.cpu.commit.committedInstType_0::IntMult         1932      0.01%     63.19% # Class of committed instruction (Count)
system.cpu.commit.committedInstType_0::IntDiv          192      0.00%     63.19% # Class of committed instruction (Count)
system.cpu.commit.committedInstType_0::FloatAdd            0      0.00%     63.19% # Class of committed instruction (Count)
system.cpu.commit.committedInstType_0::FloatCmp            0      0.00%     63.19% # Class of committed instruction (Count)
system.cpu.commit.committedInstType_0::FloatCvt            0      0.00%     63.19% # Class of committed instruction (Count)
system.cpu.commit.committedInstType_0::FloatMult            0      0.00%     63.19% # Class of committed instruction (Count)
system.cpu.commit.committedInstType_0::FloatMultAcc            0      0.00%     63.19% # Class of committed instruction (Count)
system.cpu.commit.committedInstType_0::FloatDiv            0      0.00%     63.19% # Class of committed instruction (Count)
system.cpu.commit.committedInstType_0::FloatMisc            0      0.00%     63.19% # Class of committed instruction (Count)
system.cpu.commit.committedInstType_0::FloatSqrt            0      0.00%     63.19% # Class of committed instruction (Count)
system.cpu.commit.committedInstType_0::SimdAdd            0      0.00%     63.19% # Class of committed instruction (Count)
system.cpu.commit.committedInstType_0::SimdAddAcc            0      0.00%     63.19% # Class of committed instruction (Count)
system.cpu.commit.committedInstType_0::SimdAlu            0      0.00%     63.19% # Class of committed instruction (Count)
system.cpu.commit.committedInstType_0::SimdCmp            0      0.00%     63.19% # Class of committed instruction (Count)
system.cpu.commit.committedInstType_0::SimdCvt            0      0.00%     63.19% # Class of committed instruction (Count)
system.cpu.commit.committedInstType_0::SimdMisc            0      0.00%     63.19% # Class of committed instruction (Count)
system.cpu.commit.committedInstType_0::SimdMult            0      0.00%     63.19% # Class of committed instruction (Count)
system.cpu.commit.committedInstType_0::SimdMultAcc            0      0.00%     63.19% # Class of committed instruction (Count)
system.cpu.commit.committedInstType_0::SimdShift            0      0.00%     63.19% # Class of committed instruction (Count)
system.cpu.commit.committedInstType_0::SimdShiftAcc            0      0.00%     63.19% # Class of committed instruction (Count)
system.cpu.commit.committedInstType_0::SimdDiv            0      0.00%     63.19% # Class of committed instruction (Count)
system.cpu.commit.committedInstType_0::SimdSqrt            0      0.00%     63.19% # Class of committed instruction (Count)
system.cpu.commit.committedInstType_0::SimdFloatAdd            0      0.00%     63.19% # Class of committed instruction (Count)
system.cpu.commit.committedInstType_0::SimdFloatAlu            0      0.00%     63.19% # Class of committed instruction (Count)
system.cpu.commit.committedInstType_0::SimdFloatCmp            0      0.00%     63.19% # Class of committed instruction (Count)
system.cpu.commit.committedInstType_0::SimdFloatCvt            0      0.00%     63.19% # Class of committed instruction (Count)
system.cpu.commit.committedInstType_0::SimdFloatDiv            0      0.00%     63.19% # Class of committed instruction (Count)
system.cpu.commit.committedInstType_0::SimdFloatMisc            0      0.00%     63.19% # Class of committed instruction (Count)
system.cpu.commit.committedInstType_0::SimdFloatMult            0      0.00%     63.19% # Class of committed instruction (Count)
system.cpu.commit.committedInstType_0::SimdFloatMultAcc            0      0.00%     63.19% # Class of committed instruction (Count)
system.cpu.commit.committedInstType_0::SimdFloatSqrt            0      0.00%     63.19% # Class of committed instruction (Count)
system.cpu.commit.committedInstType_0::SimdReduceAdd            0      0.00%     63.19% # Class of committed instruction (Count)
system.cpu.commit.committedInstType_0::SimdReduceAlu            0      0.00%     63.19% # Class of committed instruction (Count)
system.cpu.commit.committedInstType_0::SimdReduceCmp            0      0.00%     63.19% # Class of committed instruction (Count)
system.cpu.commit.committedInstType_0::SimdFloatReduceAdd            0      0.00%     63.19% # Class of committed instruction (Count)
system.cpu.commit.committedInstType_0::SimdFloatReduceCmp            0      0.00%     63.19% # Class of committed instruction (Count)
system.cpu.commit.committedInstType_0::SimdAes            0      0.00%     63.19% # Class of committed instruction (Count)
system.cpu.commit.committedInstType_0::SimdAesMix            0      0.00%     63.19% # Class of committed instruction (Count)
system.cpu.commit.committedInstType_0::SimdSha1Hash            0      0.00%     63.19% # Class of committed instruction (Count)
system.cpu.commit.committedInstType_0::SimdSha1Hash2            0      0.00%     63.19% # Class of committed instruction (Count)
system.cpu.commit.committedInstType_0::SimdSha256Hash            0      0.00%     63.19% # Class of committed instruction (Count)
system.cpu.commit.committedInstType_0::SimdSha256Hash2            0      0.00%     63.19% # Class of committed instruction (Count)
system.cpu.commit.committedInstType_0::SimdShaSigma2            0      0.00%     63.19% # Class of committed instruction (Count)
system.cpu.commit.committedInstType_0::SimdShaSigma3            0      0.00%     63.19% # Class of committed instruction (Count)
system.cpu.commit.committedInstType_0::SimdPredAlu            0      0.00%     63.19% # Class of committed instruction (Count)
system.cpu.commit.committedInstType_0::MemRead     10550386     35.86%     99.06% # Class of committed instruction (Count)
system.cpu.commit.committedInstType_0::MemWrite       277693      0.94%    100.00% # Class of committed instruction (Count)
system.cpu.commit.committedInstType_0::FloatMemRead            0      0.00%    100.00% # Class of committed instruction (Count)
system.cpu.commit.committedInstType_0::FloatMemWrite            0      0.00%    100.00% # Class of committed instruction (Count)
system.cpu.commit.committedInstType_0::IprAccess            0      0.00%    100.00% # Class of committed instruction (Count)
system.cpu.commit.committedInstType_0::InstPrefetch            0      0.00%    100.00% # Class of committed instruction (Count)
system.cpu.commit.committedInstType_0::total     29419468                       # Class of committed instruction (Count)
system.cpu.commit.commitEligibleSamples        185640                       # number cycles where commit BW limit reached (Cycle)
system.cpu.dcache.demandHits::cpu.data        3204515                       # number of demand (read+write) hits (Count)
system.cpu.dcache.demandHits::total           3204515                       # number of demand (read+write) hits (Count)
system.cpu.dcache.demandHitsAtPf::cpu.data        17960                       # number of demand (read+write) hits (Count)
system.cpu.dcache.demandHitsAtPf::total         17960                       # number of demand (read+write) hits (Count)
system.cpu.dcache.demandHitsAtPfAlloc::cpu.data       148812                       # number of demand (read+write) hits (Count)
system.cpu.dcache.demandHitsAtPfAlloc::total       148812                       # number of demand (read+write) hits (Count)
system.cpu.dcache.hitsAtPfCoverAccess::8     0.001598                       # hits at prefetch / demand accesses (Count)
system.cpu.dcache.hitsAtPfCoverAccess::total     0.001598                       # hits at prefetch / demand accesses (Count)
system.cpu.dcache.hitsAtPfAllocCoverAccess::8     0.013245                       # hits at prefetch alloc / demand accesses (Count)
system.cpu.dcache.hitsAtPfAllocCoverAccess::total     0.013245                       # hits at prefetch alloc / demand accesses (Count)
system.cpu.dcache.hitsPfRatio::8             8.285746                       # hits at prefetch alloc / hits at prefetch (Count)
system.cpu.dcache.hitsPfRatio::total         8.285746                       # hits at prefetch alloc / hits at prefetch (Count)
system.cpu.dcache.overallHits::cpu.data       3207005                       # number of overall hits (Count)
system.cpu.dcache.overallHits::total          3207005                       # number of overall hits (Count)
system.cpu.dcache.demandMisses::cpu.data      8031207                       # number of demand (read+write) misses (Count)
system.cpu.dcache.demandMisses::total         8031207                       # number of demand (read+write) misses (Count)
system.cpu.dcache.overallMisses::cpu.data      8031436                       # number of overall misses (Count)
system.cpu.dcache.overallMisses::total        8031436                       # number of overall misses (Count)
system.cpu.dcache.demandMissLatency::cpu.data 462891300682                       # number of demand (read+write) miss ticks (Tick)
system.cpu.dcache.demandMissLatency::total 462891300682                       # number of demand (read+write) miss ticks (Tick)
system.cpu.dcache.overallMissLatency::cpu.data 462891300682                       # number of overall miss ticks (Tick)
system.cpu.dcache.overallMissLatency::total 462891300682                       # number of overall miss ticks (Tick)
system.cpu.dcache.demandAccesses::cpu.data     11235722                       # number of demand (read+write) accesses (Count)
system.cpu.dcache.demandAccesses::total      11235722                       # number of demand (read+write) accesses (Count)
system.cpu.dcache.overallAccesses::cpu.data     11238441                       # number of overall (read+write) accesses (Count)
system.cpu.dcache.overallAccesses::total     11238441                       # number of overall (read+write) accesses (Count)
system.cpu.dcache.demandMissRate::cpu.data     0.714792                       # miss rate for demand accesses (Ratio)
system.cpu.dcache.demandMissRate::total      0.714792                       # miss rate for demand accesses (Ratio)
system.cpu.dcache.overallMissRate::cpu.data     0.714640                       # miss rate for overall accesses (Ratio)
system.cpu.dcache.overallMissRate::total     0.714640                       # miss rate for overall accesses (Ratio)
system.cpu.dcache.demandAvgMissLatency::cpu.data 57636.579493                       # average overall miss latency in ticks ((Tick/Count))
system.cpu.dcache.demandAvgMissLatency::total 57636.579493                       # average overall miss latency in ticks ((Tick/Count))
system.cpu.dcache.overallAvgMissLatency::cpu.data 57634.936104                       # average overall miss latency ((Tick/Count))
system.cpu.dcache.overallAvgMissLatency::total 57634.936104                       # average overall miss latency ((Tick/Count))
system.cpu.dcache.blockedCycles::no_mshrs       170981                       # number of cycles access was blocked (Cycle)
system.cpu.dcache.blockedCycles::no_targets        18211                       # number of cycles access was blocked (Cycle)
system.cpu.dcache.blockedCauses::no_mshrs        14880                       # number of times access was blocked (Count)
system.cpu.dcache.blockedCauses::no_targets          522                       # number of times access was blocked (Count)
system.cpu.dcache.avgBlocked::no_mshrs      11.490659                       # average number of cycles each access was blocked ((Cycle/Count))
system.cpu.dcache.avgBlocked::no_targets    34.886973                       # average number of cycles each access was blocked ((Cycle/Count))
system.cpu.dcache.writebacks::writebacks      2545101                       # number of writebacks (Count)
system.cpu.dcache.writebacks::total           2545101                       # number of writebacks (Count)
system.cpu.dcache.demandMshrHits::cpu.data      5518673                       # number of demand (read+write) MSHR hits (Count)
system.cpu.dcache.demandMshrHits::total       5518673                       # number of demand (read+write) MSHR hits (Count)
system.cpu.dcache.overallMshrHits::cpu.data      5518673                       # number of overall MSHR hits (Count)
system.cpu.dcache.overallMshrHits::total      5518673                       # number of overall MSHR hits (Count)
system.cpu.dcache.demandMshrHitsAtPf::cpu.data        14281                       # number of demand (read+write) MSHR hits (Count)
system.cpu.dcache.demandMshrHitsAtPf::total        14281                       # number of demand (read+write) MSHR hits (Count)
system.cpu.dcache.demandMshrMisses::cpu.data      2512534                       # number of demand (read+write) MSHR misses (Count)
system.cpu.dcache.demandMshrMisses::total      2512534                       # number of demand (read+write) MSHR misses (Count)
system.cpu.dcache.overallMshrMisses::cpu.data      2512763                       # number of overall MSHR misses (Count)
system.cpu.dcache.overallMshrMisses::cpu.dcache.prefetcher        32556                       # number of overall MSHR misses (Count)
system.cpu.dcache.overallMshrMisses::total      2545319                       # number of overall MSHR misses (Count)
system.cpu.dcache.overallMshrUncacheable::cpu.data           93                       # number of overall MSHR uncacheable misses (Count)
system.cpu.dcache.overallMshrUncacheable::total           93                       # number of overall MSHR uncacheable misses (Count)
system.cpu.dcache.demandMshrMissLatency::cpu.data 141450492283                       # number of demand (read+write) MSHR miss ticks (Tick)
system.cpu.dcache.demandMshrMissLatency::total 141450492283                       # number of demand (read+write) MSHR miss ticks (Tick)
system.cpu.dcache.overallMshrMissLatency::cpu.data 141460045083                       # number of overall MSHR miss ticks (Tick)
system.cpu.dcache.overallMshrMissLatency::cpu.dcache.prefetcher   1912149208                       # number of overall MSHR miss ticks (Tick)
system.cpu.dcache.overallMshrMissLatency::total 143372194291                       # number of overall MSHR miss ticks (Tick)
system.cpu.dcache.overallMshrUncacheableLatency::cpu.data      2525600                       # number of overall MSHR uncacheable ticks (Tick)
system.cpu.dcache.overallMshrUncacheableLatency::total      2525600                       # number of overall MSHR uncacheable ticks (Tick)
system.cpu.dcache.demandMshrMissRate::cpu.data     0.223620                       # mshr miss ratio for demand accesses (Ratio)
system.cpu.dcache.demandMshrMissRate::total     0.223620                       # mshr miss ratio for demand accesses (Ratio)
system.cpu.dcache.overallMshrMissRate::cpu.data     0.223586                       # mshr miss ratio for overall accesses (Ratio)
system.cpu.dcache.overallMshrMissRate::cpu.dcache.prefetcher          inf                       # mshr miss ratio for overall accesses (Ratio)
system.cpu.dcache.overallMshrMissRate::total     0.226483                       # mshr miss ratio for overall accesses (Ratio)
system.cpu.dcache.demandAvgMshrMissLatency::cpu.data 56297.941553                       # average overall mshr miss latency ((Tick/Count))
system.cpu.dcache.demandAvgMshrMissLatency::total 56297.941553                       # average overall mshr miss latency ((Tick/Count))
system.cpu.dcache.overallAvgMshrMissLatency::cpu.data 56296.612567                       # average overall mshr miss latency ((Tick/Count))
system.cpu.dcache.overallAvgMshrMissLatency::cpu.dcache.prefetcher 58734.156776                       # average overall mshr miss latency ((Tick/Count))
system.cpu.dcache.overallAvgMshrMissLatency::total 56327.790069                       # average overall mshr miss latency ((Tick/Count))
system.cpu.dcache.overallAvgMshrUncacheableLatency::cpu.data 27156.989247                       # average overall mshr uncacheable latency ((Tick/Count))
system.cpu.dcache.overallAvgMshrUncacheableLatency::total 27156.989247                       # average overall mshr uncacheable latency ((Tick/Count))
system.cpu.dcache.replacements                2545101                       # number of replacements (Count)
system.cpu.dcache.prefetchFills                 18275                       # number of prefetch fills (Count)
system.cpu.dcache.prefetchHits                  17960                       # number of prefetch hits (Count)
system.cpu.dcache.HardPFReq.mshrMisses::cpu.dcache.prefetcher        32556                       # number of HardPFReq MSHR misses (Count)
system.cpu.dcache.HardPFReq.mshrMisses::total        32556                       # number of HardPFReq MSHR misses (Count)
system.cpu.dcache.HardPFReq.mshrMissLatency::cpu.dcache.prefetcher   1912149208                       # number of HardPFReq MSHR miss ticks (Tick)
system.cpu.dcache.HardPFReq.mshrMissLatency::total   1912149208                       # number of HardPFReq MSHR miss ticks (Tick)
system.cpu.dcache.HardPFReq.mshrMissRate::cpu.dcache.prefetcher          inf                       # mshr miss rate for HardPFReq accesses (Ratio)
system.cpu.dcache.HardPFReq.mshrMissRate::total          inf                       # mshr miss rate for HardPFReq accesses (Ratio)
system.cpu.dcache.HardPFReq.avgMshrMissLatency::cpu.dcache.prefetcher 58734.156776                       # average HardPFReq mshr miss latency ((Tick/Count))
system.cpu.dcache.HardPFReq.avgMshrMissLatency::total 58734.156776                       # average HardPFReq mshr miss latency ((Tick/Count))
system.cpu.dcache.LoadLockedReq.hits::cpu.data         2485                       # number of LoadLockedReq hits (Count)
system.cpu.dcache.LoadLockedReq.hits::total         2485                       # number of LoadLockedReq hits (Count)
system.cpu.dcache.LoadLockedReq.hitsAtPfAlloc::cpu.data          484                       # number of LoadLockedReq hits (Count)
system.cpu.dcache.LoadLockedReq.hitsAtPfAlloc::total          484                       # number of LoadLockedReq hits (Count)
system.cpu.dcache.LoadLockedReq.misses::cpu.data          230                       # number of LoadLockedReq misses (Count)
system.cpu.dcache.LoadLockedReq.misses::total          230                       # number of LoadLockedReq misses (Count)
system.cpu.dcache.LoadLockedReq.missLatency::cpu.data      9889200                       # number of LoadLockedReq miss ticks (Tick)
system.cpu.dcache.LoadLockedReq.missLatency::total      9889200                       # number of LoadLockedReq miss ticks (Tick)
system.cpu.dcache.LoadLockedReq.accesses::cpu.data         2715                       # number of LoadLockedReq accesses(hits+misses) (Count)
system.cpu.dcache.LoadLockedReq.accesses::total         2715                       # number of LoadLockedReq accesses(hits+misses) (Count)
system.cpu.dcache.LoadLockedReq.missRate::cpu.data     0.084715                       # miss rate for LoadLockedReq accesses (Ratio)
system.cpu.dcache.LoadLockedReq.missRate::total     0.084715                       # miss rate for LoadLockedReq accesses (Ratio)
system.cpu.dcache.LoadLockedReq.avgMissLatency::cpu.data 42996.521739                       # average LoadLockedReq miss latency ((Tick/Count))
system.cpu.dcache.LoadLockedReq.avgMissLatency::total 42996.521739                       # average LoadLockedReq miss latency ((Tick/Count))
system.cpu.dcache.LoadLockedReq.mshrHits::cpu.data          229                       # number of LoadLockedReq MSHR hits (Count)
system.cpu.dcache.LoadLockedReq.mshrHits::total          229                       # number of LoadLockedReq MSHR hits (Count)
system.cpu.dcache.LoadLockedReq.mshrMisses::cpu.data            1                       # number of LoadLockedReq MSHR misses (Count)
system.cpu.dcache.LoadLockedReq.mshrMisses::total            1                       # number of LoadLockedReq MSHR misses (Count)
system.cpu.dcache.LoadLockedReq.mshrMissLatency::cpu.data        60000                       # number of LoadLockedReq MSHR miss ticks (Tick)
system.cpu.dcache.LoadLockedReq.mshrMissLatency::total        60000                       # number of LoadLockedReq MSHR miss ticks (Tick)
system.cpu.dcache.LoadLockedReq.mshrMissRate::cpu.data     0.000368                       # mshr miss rate for LoadLockedReq accesses (Ratio)
system.cpu.dcache.LoadLockedReq.mshrMissRate::total     0.000368                       # mshr miss rate for LoadLockedReq accesses (Ratio)
system.cpu.dcache.LoadLockedReq.avgMshrMissLatency::cpu.data        60000                       # average LoadLockedReq mshr miss latency ((Tick/Count))
system.cpu.dcache.LoadLockedReq.avgMshrMissLatency::total        60000                       # average LoadLockedReq mshr miss latency ((Tick/Count))
system.cpu.dcache.ReadReq.hits::cpu.data      2950402                       # number of ReadReq hits (Count)
system.cpu.dcache.ReadReq.hits::total         2950402                       # number of ReadReq hits (Count)
system.cpu.dcache.ReadReq.hitsAtPf::cpu.data        17927                       # number of ReadReq hits (Count)
system.cpu.dcache.ReadReq.hitsAtPf::total        17927                       # number of ReadReq hits (Count)
system.cpu.dcache.ReadReq.hitsAtPfAlloc::cpu.data       145751                       # number of ReadReq hits (Count)
system.cpu.dcache.ReadReq.hitsAtPfAlloc::total       145751                       # number of ReadReq hits (Count)
system.cpu.dcache.ReadReq.misses::cpu.data      8010315                       # number of ReadReq misses (Count)
system.cpu.dcache.ReadReq.misses::total       8010315                       # number of ReadReq misses (Count)
system.cpu.dcache.ReadReq.missLatency::cpu.data 462146484800                       # number of ReadReq miss ticks (Tick)
system.cpu.dcache.ReadReq.missLatency::total 462146484800                       # number of ReadReq miss ticks (Tick)
system.cpu.dcache.ReadReq.accesses::cpu.data     10960717                       # number of ReadReq accesses(hits+misses) (Count)
system.cpu.dcache.ReadReq.accesses::total     10960717                       # number of ReadReq accesses(hits+misses) (Count)
system.cpu.dcache.ReadReq.missRate::cpu.data     0.730820                       # miss rate for ReadReq accesses (Ratio)
system.cpu.dcache.ReadReq.missRate::total     0.730820                       # miss rate for ReadReq accesses (Ratio)
system.cpu.dcache.ReadReq.avgMissLatency::cpu.data 57693.921500                       # average ReadReq miss latency ((Tick/Count))
system.cpu.dcache.ReadReq.avgMissLatency::total 57693.921500                       # average ReadReq miss latency ((Tick/Count))
system.cpu.dcache.ReadReq.mshrHits::cpu.data      5515001                       # number of ReadReq MSHR hits (Count)
system.cpu.dcache.ReadReq.mshrHits::total      5515001                       # number of ReadReq MSHR hits (Count)
system.cpu.dcache.ReadReq.mshrHitsAtPf::8        14019                       # number of ReadReq MSHR hits at pfMSHR (Count)
system.cpu.dcache.ReadReq.mshrHitsAtPf::total        14019                       # number of ReadReq MSHR hits at pfMSHR (Count)
system.cpu.dcache.ReadReq.mshrMisses::cpu.data      2495314                       # number of ReadReq MSHR misses (Count)
system.cpu.dcache.ReadReq.mshrMisses::total      2495314                       # number of ReadReq MSHR misses (Count)
system.cpu.dcache.ReadReq.mshrUncacheable::cpu.data           62                       # number of ReadReq MSHR uncacheable (Count)
system.cpu.dcache.ReadReq.mshrUncacheable::total           62                       # number of ReadReq MSHR uncacheable (Count)
system.cpu.dcache.ReadReq.mshrMissLatency::cpu.data 140927598800                       # number of ReadReq MSHR miss ticks (Tick)
system.cpu.dcache.ReadReq.mshrMissLatency::total 140927598800                       # number of ReadReq MSHR miss ticks (Tick)
system.cpu.dcache.ReadReq.mshrUncacheableLatency::cpu.data      2525600                       # number of ReadReq MSHR uncacheable ticks (Tick)
system.cpu.dcache.ReadReq.mshrUncacheableLatency::total      2525600                       # number of ReadReq MSHR uncacheable ticks (Tick)
system.cpu.dcache.ReadReq.mshrMissRate::cpu.data     0.227660                       # mshr miss rate for ReadReq accesses (Ratio)
system.cpu.dcache.ReadReq.mshrMissRate::total     0.227660                       # mshr miss rate for ReadReq accesses (Ratio)
system.cpu.dcache.ReadReq.avgMshrMissLatency::cpu.data 56476.899821                       # average ReadReq mshr miss latency ((Tick/Count))
system.cpu.dcache.ReadReq.avgMshrMissLatency::total 56476.899821                       # average ReadReq mshr miss latency ((Tick/Count))
system.cpu.dcache.ReadReq.avgMshrUncacheableLatency::cpu.data 40735.483871                       # average ReadReq mshr uncacheable latency ((Tick/Count))
system.cpu.dcache.ReadReq.avgMshrUncacheableLatency::total 40735.483871                       # average ReadReq mshr uncacheable latency ((Tick/Count))
system.cpu.dcache.SoftPFExReq.hits::cpu.data         2238                       # number of SoftPFExReq hits (Count)
system.cpu.dcache.SoftPFExReq.hits::total         2238                       # number of SoftPFExReq hits (Count)
system.cpu.dcache.SoftPFExReq.hitsAtPfAlloc::cpu.data          484                       # number of SoftPFExReq hits (Count)
system.cpu.dcache.SoftPFExReq.hitsAtPfAlloc::total          484                       # number of SoftPFExReq hits (Count)
system.cpu.dcache.SoftPFExReq.misses::cpu.data          229                       # number of SoftPFExReq misses (Count)
system.cpu.dcache.SoftPFExReq.misses::total          229                       # number of SoftPFExReq misses (Count)
system.cpu.dcache.SoftPFExReq.accesses::cpu.data         2467                       # number of SoftPFExReq accesses(hits+misses) (Count)
system.cpu.dcache.SoftPFExReq.accesses::total         2467                       # number of SoftPFExReq accesses(hits+misses) (Count)
system.cpu.dcache.SoftPFExReq.missRate::cpu.data     0.092825                       # miss rate for SoftPFExReq accesses (Ratio)
system.cpu.dcache.SoftPFExReq.missRate::total     0.092825                       # miss rate for SoftPFExReq accesses (Ratio)
system.cpu.dcache.SoftPFExReq.mshrMisses::cpu.data          229                       # number of SoftPFExReq MSHR misses (Count)
system.cpu.dcache.SoftPFExReq.mshrMisses::total          229                       # number of SoftPFExReq MSHR misses (Count)
system.cpu.dcache.SoftPFExReq.mshrMissLatency::cpu.data      9552800                       # number of SoftPFExReq MSHR miss ticks (Tick)
system.cpu.dcache.SoftPFExReq.mshrMissLatency::total      9552800                       # number of SoftPFExReq MSHR miss ticks (Tick)
system.cpu.dcache.SoftPFExReq.mshrMissRate::cpu.data     0.092825                       # mshr miss rate for SoftPFExReq accesses (Ratio)
system.cpu.dcache.SoftPFExReq.mshrMissRate::total     0.092825                       # mshr miss rate for SoftPFExReq accesses (Ratio)
system.cpu.dcache.SoftPFExReq.avgMshrMissLatency::cpu.data 41715.283843                       # average SoftPFExReq mshr miss latency ((Tick/Count))
system.cpu.dcache.SoftPFExReq.avgMshrMissLatency::total 41715.283843                       # average SoftPFExReq mshr miss latency ((Tick/Count))
system.cpu.dcache.SoftPFReq.hits::cpu.data          252                       # number of SoftPFReq hits (Count)
system.cpu.dcache.SoftPFReq.hits::total           252                       # number of SoftPFReq hits (Count)
system.cpu.dcache.SoftPFReq.accesses::cpu.data          252                       # number of SoftPFReq accesses(hits+misses) (Count)
system.cpu.dcache.SoftPFReq.accesses::total          252                       # number of SoftPFReq accesses(hits+misses) (Count)
system.cpu.dcache.StoreCondReq.hits::cpu.data         2651                       # number of StoreCondReq hits (Count)
system.cpu.dcache.StoreCondReq.hits::total         2651                       # number of StoreCondReq hits (Count)
system.cpu.dcache.StoreCondReq.hitsAtPfAlloc::cpu.data          484                       # number of StoreCondReq hits (Count)
system.cpu.dcache.StoreCondReq.hitsAtPfAlloc::total          484                       # number of StoreCondReq hits (Count)
system.cpu.dcache.StoreCondReq.accesses::cpu.data         2651                       # number of StoreCondReq accesses(hits+misses) (Count)
system.cpu.dcache.StoreCondReq.accesses::total         2651                       # number of StoreCondReq accesses(hits+misses) (Count)
system.cpu.dcache.SwapReq.hits::cpu.data            6                       # number of SwapReq hits (Count)
system.cpu.dcache.SwapReq.hits::total               6                       # number of SwapReq hits (Count)
system.cpu.dcache.SwapReq.accesses::cpu.data            6                       # number of SwapReq accesses(hits+misses) (Count)
system.cpu.dcache.SwapReq.accesses::total            6                       # number of SwapReq accesses(hits+misses) (Count)
system.cpu.dcache.WriteLineReq.misses::cpu.data        16128                       # number of WriteLineReq misses (Count)
system.cpu.dcache.WriteLineReq.misses::total        16128                       # number of WriteLineReq misses (Count)
system.cpu.dcache.WriteLineReq.missLatency::cpu.data    505351976                       # number of WriteLineReq miss ticks (Tick)
system.cpu.dcache.WriteLineReq.missLatency::total    505351976                       # number of WriteLineReq miss ticks (Tick)
system.cpu.dcache.WriteLineReq.accesses::cpu.data        16128                       # number of WriteLineReq accesses(hits+misses) (Count)
system.cpu.dcache.WriteLineReq.accesses::total        16128                       # number of WriteLineReq accesses(hits+misses) (Count)
system.cpu.dcache.WriteLineReq.missRate::cpu.data            1                       # miss rate for WriteLineReq accesses (Ratio)
system.cpu.dcache.WriteLineReq.missRate::total            1                       # miss rate for WriteLineReq accesses (Ratio)
system.cpu.dcache.WriteLineReq.avgMissLatency::cpu.data 31333.827877                       # average WriteLineReq miss latency ((Tick/Count))
system.cpu.dcache.WriteLineReq.avgMissLatency::total 31333.827877                       # average WriteLineReq miss latency ((Tick/Count))
system.cpu.dcache.WriteLineReq.mshrHits::cpu.data          252                       # number of WriteLineReq MSHR hits (Count)
system.cpu.dcache.WriteLineReq.mshrHits::total          252                       # number of WriteLineReq MSHR hits (Count)
system.cpu.dcache.WriteLineReq.mshrHitsAtPf::8          252                       # number of WriteLineReq MSHR hits at pfMSHR (Count)
system.cpu.dcache.WriteLineReq.mshrHitsAtPf::total          252                       # number of WriteLineReq MSHR hits at pfMSHR (Count)
system.cpu.dcache.WriteLineReq.mshrMisses::cpu.data        15876                       # number of WriteLineReq MSHR misses (Count)
system.cpu.dcache.WriteLineReq.mshrMisses::total        15876                       # number of WriteLineReq MSHR misses (Count)
system.cpu.dcache.WriteLineReq.mshrMissLatency::cpu.data    464766376                       # number of WriteLineReq MSHR miss ticks (Tick)
system.cpu.dcache.WriteLineReq.mshrMissLatency::total    464766376                       # number of WriteLineReq MSHR miss ticks (Tick)
system.cpu.dcache.WriteLineReq.mshrMissRate::cpu.data     0.984375                       # mshr miss rate for WriteLineReq accesses (Ratio)
system.cpu.dcache.WriteLineReq.mshrMissRate::total     0.984375                       # mshr miss rate for WriteLineReq accesses (Ratio)
system.cpu.dcache.WriteLineReq.avgMshrMissLatency::cpu.data 29274.778030                       # average WriteLineReq mshr miss latency ((Tick/Count))
system.cpu.dcache.WriteLineReq.avgMshrMissLatency::total 29274.778030                       # average WriteLineReq mshr miss latency ((Tick/Count))
system.cpu.dcache.WriteReq.hits::cpu.data       254113                       # number of WriteReq hits (Count)
system.cpu.dcache.WriteReq.hits::total         254113                       # number of WriteReq hits (Count)
system.cpu.dcache.WriteReq.hitsAtPf::cpu.data           33                       # number of WriteReq hits (Count)
system.cpu.dcache.WriteReq.hitsAtPf::total           33                       # number of WriteReq hits (Count)
system.cpu.dcache.WriteReq.hitsAtPfAlloc::cpu.data         3061                       # number of WriteReq hits (Count)
system.cpu.dcache.WriteReq.hitsAtPfAlloc::total         3061                       # number of WriteReq hits (Count)
system.cpu.dcache.WriteReq.misses::cpu.data         4764                       # number of WriteReq misses (Count)
system.cpu.dcache.WriteReq.misses::total         4764                       # number of WriteReq misses (Count)
system.cpu.dcache.WriteReq.missLatency::cpu.data    239463906                       # number of WriteReq miss ticks (Tick)
system.cpu.dcache.WriteReq.missLatency::total    239463906                       # number of WriteReq miss ticks (Tick)
system.cpu.dcache.WriteReq.accesses::cpu.data       258877                       # number of WriteReq accesses(hits+misses) (Count)
system.cpu.dcache.WriteReq.accesses::total       258877                       # number of WriteReq accesses(hits+misses) (Count)
system.cpu.dcache.WriteReq.missRate::cpu.data     0.018403                       # miss rate for WriteReq accesses (Ratio)
system.cpu.dcache.WriteReq.missRate::total     0.018403                       # miss rate for WriteReq accesses (Ratio)
system.cpu.dcache.WriteReq.avgMissLatency::cpu.data 50265.303526                       # average WriteReq miss latency ((Tick/Count))
system.cpu.dcache.WriteReq.avgMissLatency::total 50265.303526                       # average WriteReq miss latency ((Tick/Count))
system.cpu.dcache.WriteReq.mshrHits::cpu.data         3420                       # number of WriteReq MSHR hits (Count)
system.cpu.dcache.WriteReq.mshrHits::total         3420                       # number of WriteReq MSHR hits (Count)
system.cpu.dcache.WriteReq.mshrHitsAtPf::8           10                       # number of WriteReq MSHR hits at pfMSHR (Count)
system.cpu.dcache.WriteReq.mshrHitsAtPf::total           10                       # number of WriteReq MSHR hits at pfMSHR (Count)
system.cpu.dcache.WriteReq.mshrMisses::cpu.data         1344                       # number of WriteReq MSHR misses (Count)
system.cpu.dcache.WriteReq.mshrMisses::total         1344                       # number of WriteReq MSHR misses (Count)
system.cpu.dcache.WriteReq.mshrUncacheable::cpu.data           31                       # number of WriteReq MSHR uncacheable (Count)
system.cpu.dcache.WriteReq.mshrUncacheable::total           31                       # number of WriteReq MSHR uncacheable (Count)
system.cpu.dcache.WriteReq.mshrMissLatency::cpu.data     58127107                       # number of WriteReq MSHR miss ticks (Tick)
system.cpu.dcache.WriteReq.mshrMissLatency::total     58127107                       # number of WriteReq MSHR miss ticks (Tick)
system.cpu.dcache.WriteReq.mshrMissRate::cpu.data     0.005192                       # mshr miss rate for WriteReq accesses (Ratio)
system.cpu.dcache.WriteReq.mshrMissRate::total     0.005192                       # mshr miss rate for WriteReq accesses (Ratio)
system.cpu.dcache.WriteReq.avgMshrMissLatency::cpu.data 43249.335565                       # average WriteReq mshr miss latency ((Tick/Count))
system.cpu.dcache.WriteReq.avgMshrMissLatency::total 43249.335565                       # average WriteReq mshr miss latency ((Tick/Count))
system.cpu.dcache.power_state.pwrStateResidencyTicks::UNDEFINED 715480356800                       # Cumulative time (in ticks) in various power states (Tick)
system.cpu.dcache.prefetcher.demandMshrMisses      2512534                       # demands not covered by prefetchs (Count)
system.cpu.dcache.prefetcher.demandMshrHitsAtPf        14281                       # demands hit in mshr allocated by prefetchs (Count)
system.cpu.dcache.prefetcher.pfIssued          702060                       # number of hwpf issued (Count)
system.cpu.dcache.prefetcher.pfUnused             316                       # number of HardPF blocks evicted w/o reference (Count)
system.cpu.dcache.prefetcher.pfUseful           17960                       # number of useful prefetch (Count)
system.cpu.dcache.prefetcher.pfUsefulButMiss            0                       # number of hit on prefetch but cache block is not in an usable state (Count)
system.cpu.dcache.prefetcher.pf_cosumed      0.012792                       # pf_cosumed of the prefetcher (Count)
system.cpu.dcache.prefetcher.pf_effective     0.990324                       # pf_effective of the prefetcher (Count)
system.cpu.dcache.prefetcher.pf_timely       0.557055                       # pf_timely of the prefetcher (Count)
system.cpu.dcache.prefetcher.accuracy_cache     0.551665                       # accuracy_cache of the prefetcher (Count)
system.cpu.dcache.prefetcher.accuracy_prefetcher     0.999551                       # accuracy_prefetcher of the prefetcher (Count)
system.cpu.dcache.prefetcher.pfHitInCache       600515                       # number of prefetches hitting in cache (Count)
system.cpu.dcache.prefetcher.pfHitInMSHR        68989                       # number of prefetches hitting in a MSHR (Count)
system.cpu.dcache.prefetcher.pfHitInWB              0                       # number of prefetches hit in the Write Buffer (Count)
system.cpu.dcache.prefetcher.pfLate            669504                       # number of late prefetches (hitting in cache, MSHR or WB) (Count)
system.cpu.dcache.prefetcher.pfLateRate      0.953628                       # number of late prefetches (hitting in cache, MSHR or WB) (Count)
system.cpu.dcache.prefetcher.pfIdentified      1555166                       # number of prefetch candidates identified (Count)
system.cpu.dcache.prefetcher.pfBufferHit       694999                       # number of redundant prefetches already in prefetch queue (Count)
system.cpu.dcache.prefetcher.pfInCache              0                       # number of redundant prefetches already in cache/mshr dropped (Count)
system.cpu.dcache.prefetcher.pfRemovedDemand        41493                       # number of prefetches dropped due to a demand for the same address (Count)
system.cpu.dcache.prefetcher.pfRemovedFull            0                       # number of prefetches dropped due to prefetch queue size (Count)
system.cpu.dcache.prefetcher.pfSpanPage         64246                       # number of prefetches that crossed the page (Count)
system.cpu.dcache.prefetcher.pfUsefulSpanPage         2500                       # number of prefetches that is useful and crossed the page (Count)
system.cpu.dcache.prefetcher.pfTransFailed       127958                       # number of pfq empty and translation not avaliable immediately when there is a chance for prefetch (Count)
system.cpu.dcache.prefetcher.dmp_pfIdentified       128012                       # number of DMP prefetch candidates identified (Count)
system.cpu.dcache.prefetcher.dmp_dataFill           53                       # number of DMP prefetch candidates identified (Count)
system.cpu.dcache.prefetcher.power_state.pwrStateResidencyTicks::UNDEFINED 715480356800                       # Cumulative time (in ticks) in various power states (Tick)
system.cpu.dcache.tags.tagsInUse                  512                       # Average ticks per tags in use ((Tick/Count))
system.cpu.dcache.tags.totalRefs              9093649                       # Total number of references to valid blocks. (Count)
system.cpu.dcache.tags.sampledRefs            2545101                       # Sample count of references to valid blocks. (Count)
system.cpu.dcache.tags.avgRefs               3.573001                       # Average number of references to valid blocks. ((Count/Count))
system.cpu.dcache.tags.warmupTick                   0                       # The tick when the warmup percentage was hit. (Tick)
system.cpu.dcache.tags.occupancies::cpu.data   503.055756                       # Average occupied blocks per tick, per requestor ((Count/Tick))
system.cpu.dcache.tags.occupancies::cpu.dcache.prefetcher     8.944244                       # Average occupied blocks per tick, per requestor ((Count/Tick))
system.cpu.dcache.tags.avgOccs::cpu.data     0.982531                       # Average percentage of cache occupancy ((Ratio/Tick))
system.cpu.dcache.tags.avgOccs::cpu.dcache.prefetcher     0.017469                       # Average percentage of cache occupancy ((Ratio/Tick))
system.cpu.dcache.tags.avgOccs::total               1                       # Average percentage of cache occupancy ((Ratio/Tick))
system.cpu.dcache.tags.occupanciesTaskId::1022            9                       # Occupied blocks per task id (Count)
system.cpu.dcache.tags.occupanciesTaskId::1024          503                       # Occupied blocks per task id (Count)
system.cpu.dcache.tags.ageTaskId_1022::0            6                       # Occupied blocks per task id, per block age (Count)
system.cpu.dcache.tags.ageTaskId_1022::1            3                       # Occupied blocks per task id, per block age (Count)
system.cpu.dcache.tags.ageTaskId_1024::0          187                       # Occupied blocks per task id, per block age (Count)
system.cpu.dcache.tags.ageTaskId_1024::1          316                       # Occupied blocks per task id, per block age (Count)
system.cpu.dcache.tags.ratioOccsTaskId::1022     0.017578                       # Ratio of occupied blocks and all blocks, per task id (Ratio)
system.cpu.dcache.tags.ratioOccsTaskId::1024     0.982422                       # Ratio of occupied blocks and all blocks, per task id (Ratio)
system.cpu.dcache.tags.tagAccesses           97299725                       # Number of tag accesses (Count)
system.cpu.dcache.tags.dataAccesses          97299725                       # Number of data accesses (Count)
system.cpu.dcache.tags.power_state.pwrStateResidencyTicks::UNDEFINED 715480356800                       # Cumulative time (in ticks) in various power states (Tick)
system.cpu.decode.idleCycles                  4617108                       # Number of cycles decode is idle (Cycle)
system.cpu.decode.blockedCycles             293080660                       # Number of cycles decode is blocked (Cycle)
system.cpu.decode.runCycles                   6519770                       # Number of cycles decode is running (Cycle)
system.cpu.decode.unblockCycles               6292593                       # Number of cycles decode is unblocking (Cycle)
system.cpu.decode.squashCycles                 172792                       # Number of cycles decode is squashing (Cycle)
system.cpu.decode.branchResolved              2865081                       # Number of times decode resolved a branch (Count)
system.cpu.decode.branchMispred                  2235                       # Number of times decode detected a branch misprediction (Count)
system.cpu.decode.decodedInsts               35087431                       # Number of instructions handled by decode (Count)
system.cpu.decode.squashedInsts                192422                       # Number of squashed instructions handled by decode (Count)
system.cpu.fetch.icacheStallCycles             242065                       # Number of cycles fetch is stalled on an Icache miss (Cycle)
system.cpu.fetch.insts                       41050728                       # Number of instructions fetch has processed (Count)
system.cpu.fetch.branches                     9270979                       # Number of branches that fetch encountered (Count)
system.cpu.fetch.predictedBranches            3420159                       # Number of branches that fetch has predicted taken (Count)
system.cpu.fetch.cycles                     310216797                       # Number of cycles fetch has run and was not squashing or blocked (Cycle)
system.cpu.fetch.squashCycles                  350050                       # Number of cycles fetch has spent squashing (Cycle)
system.cpu.fetch.tlbCycles                       3505                       # Number of cycles fetch has spent waiting for tlb (Cycle)
system.cpu.fetch.miscStallCycles                21695                       # Number of cycles fetch has spent waiting on interrupts, or bad addresses, or out of MSHRs (Cycle)
system.cpu.fetch.pendingTrapStallCycles         23046                       # Number of stall cycles due to pending traps (Cycle)
system.cpu.fetch.pendingQuiesceStallCycles          349                       # Number of stall cycles due to pending quiesce instructions (Cycle)
system.cpu.fetch.icacheWaitRetryStallCycles          441                       # Number of stall cycles due to full MSHR (Cycle)
system.cpu.fetch.cacheLines                  12969171                       # Number of cache lines fetched (Count)
system.cpu.fetch.icacheSquashes                   574                       # Number of outstanding Icache misses that were squashed (Count)
system.cpu.fetch.tlbSquashes                       23                       # Number of outstanding ITLB misses that were squashed (Count)
system.cpu.fetch.nisnDist::samples          310682923                       # Number of instructions fetched each cycle (Total) (Count)
system.cpu.fetch.nisnDist::mean              0.132718                       # Number of instructions fetched each cycle (Total) (Count)
system.cpu.fetch.nisnDist::stdev             0.545723                       # Number of instructions fetched each cycle (Total) (Count)
system.cpu.fetch.nisnDist::underflows               0      0.00%      0.00% # Number of instructions fetched each cycle (Total) (Count)
system.cpu.fetch.nisnDist::0                288639915     92.90%     92.90% # Number of instructions fetched each cycle (Total) (Count)
system.cpu.fetch.nisnDist::1                 12045256      3.88%     96.78% # Number of instructions fetched each cycle (Total) (Count)
system.cpu.fetch.nisnDist::2                   805408      0.26%     97.04% # Number of instructions fetched each cycle (Total) (Count)
system.cpu.fetch.nisnDist::3                  9192344      2.96%    100.00% # Number of instructions fetched each cycle (Total) (Count)
system.cpu.fetch.nisnDist::overflows                0      0.00%    100.00% # Number of instructions fetched each cycle (Total) (Count)
system.cpu.fetch.nisnDist::min_value                0                       # Number of instructions fetched each cycle (Total) (Count)
system.cpu.fetch.nisnDist::max_value                3                       # Number of instructions fetched each cycle (Total) (Count)
system.cpu.fetch.nisnDist::total            310682923                       # Number of instructions fetched each cycle (Total) (Count)
system.cpu.fetch.branchRate                  0.029831                       # Number of branch fetches per cycle (Ratio)
system.cpu.fetch.rate                        0.132086                       # Number of inst fetches per cycle ((Count/Cycle))
system.cpu.icache.demandHits::cpu.inst       12966711                       # number of demand (read+write) hits (Count)
system.cpu.icache.demandHits::total          12966711                       # number of demand (read+write) hits (Count)
system.cpu.icache.overallHits::cpu.inst      12966711                       # number of overall hits (Count)
[...]
system.membus.pktCount_system.l2.mem_side_port::system.realview.gic.pio          192                       # Packet count per connected requestor and responder (Count)
system.membus.pktCount_system.l2.mem_side_port::system.mem_ctrls.port      7097216                       # Packet count per connected requestor and responder (Count)
system.membus.pktCount_system.l2.mem_side_port::total      7098252                       # Packet count per connected requestor and responder (Count)
system.membus.pktCount::total                 7098252                       # Packet count per connected requestor and responder (Count)
system.membus.pktSize_system.l2.mem_side_port::system.bridge.cpu_side_port          844                       # Cumulative packet size per connected requestor and responder (Byte)
system.membus.pktSize_system.l2.mem_side_port::system.realview.gic.pio          384                       # Cumulative packet size per connected requestor and responder (Byte)
system.membus.pktSize_system.l2.mem_side_port::system.mem_ctrls.port    152201472                       # Cumulative packet size per connected requestor and responder (Byte)
system.membus.pktSize_system.l2.mem_side_port::total    152202700                       # Cumulative packet size per connected requestor and responder (Byte)
system.membus.pktSize::total                152202700                       # Cumulative packet size per connected requestor and responder (Byte)
system.membus.snoops                                0                       # Total snoops (Count)
system.membus.snoopTraffic                          0                       # Total snoop traffic (Byte)
system.membus.snoopFanout::samples            2803595                       # Request fanout histogram (Count)
system.membus.snoopFanout::mean                     0                       # Request fanout histogram (Count)
system.membus.snoopFanout::stdev                    0                       # Request fanout histogram (Count)
system.membus.snoopFanout::underflows               0      0.00%      0.00% # Request fanout histogram (Count)
system.membus.snoopFanout::0                  2803595    100.00%    100.00% # Request fanout histogram (Count)
system.membus.snoopFanout::1                        0      0.00%    100.00% # Request fanout histogram (Count)
system.membus.snoopFanout::2                        0      0.00%    100.00% # Request fanout histogram (Count)
system.membus.snoopFanout::overflows                0      0.00%    100.00% # Request fanout histogram (Count)
system.membus.snoopFanout::min_value                0                       # Request fanout histogram (Count)
system.membus.snoopFanout::max_value                0                       # Request fanout histogram (Count)
system.membus.snoopFanout::total              2803595                       # Request fanout histogram (Count)
system.membus.badaddr_responder.power_state.pwrStateResidencyTicks::UNDEFINED 717358102800                       # Cumulative time (in ticks) in various power states (Tick)
system.membus.power_state.pwrStateResidencyTicks::UNDEFINED 717358102800                       # Cumulative time (in ticks) in various power states (Tick)
system.membus.reqLayer0.occupancy              832439                       # Layer occupancy (ticks) (Tick)
system.membus.reqLayer0.utilization               0.0                       # Layer utilization (Ratio)
system.membus.reqLayer12.occupancy             147800                       # Layer occupancy (ticks) (Tick)
system.membus.reqLayer12.utilization              0.0                       # Layer utilization (Ratio)
system.membus.reqLayer15.occupancy         7108598536                       # Layer occupancy (ticks) (Tick)
system.membus.reqLayer15.utilization              0.1                       # Layer utilization (Ratio)
system.membus.respLayer2.occupancy        11769094000                       # Layer occupancy (ticks) (Tick)
system.membus.respLayer2.utilization              0.1                       # Layer utilization (Ratio)
system.membus.snoop_filter.totRequests        5176663                       # Total number of requests made to the snoop filter. (Count)
system.membus.snoop_filter.hitSingleRequests      2373632                       # Number of requests hitting in the snoop filter with a single holder of the requested data. (Count)
system.membus.snoop_filter.hitMultiRequests            0                       # Number of requests hitting in the snoop filter with multiple (>1) holders of the requested data. (Count)
system.membus.snoop_filter.totSnoops                0                       # Total number of snoops made to the snoop filter. (Count)
system.membus.snoop_filter.hitSingleSnoops            0                       # Number of snoops hitting in the snoop filter with a single holder of the requested data. (Count)
system.membus.snoop_filter.hitMultiSnoops            0                       # Number of snoops hitting in the snoop filter with multiple (>1) holders of the requested data. (Count)
system.pci_ide.disks.IdeDisk.dmaReadFullPages            0                       # Number of full page size DMA reads (not PRD). (Count)
system.pci_ide.disks.IdeDisk.dmaReadBytes            0                       # Number of bytes transfered via DMA reads (not PRD). (Byte)
system.pci_ide.disks.IdeDisk.dmaReadTxs             0                       # Number of DMA read transactions (not PRD). (Count)
system.pci_ide.disks.IdeDisk.dmaWriteFullPages            0                       # Number of full page size DMA writes. (Count)
system.pci_ide.disks.IdeDisk.dmaWriteBytes            0                       # Number of bytes transfered via DMA writes. (Byte)
system.pci_ide.disks.IdeDisk.dmaWriteTxs            0                       # Number of DMA write transactions. (Count)
system.pci_ide.power_state.pwrStateResidencyTicks::UNDEFINED 717358102800                       # Cumulative time (in ticks) in various power states (Tick)
system.realview.bootmem.power_state.pwrStateResidencyTicks::UNDEFINED 717358102800                       # Cumulative time (in ticks) in various power states (Tick)
system.realview.clock24MHz.clock                41667                       # Clock period in ticks (Tick)
system.realview.clock32KHz.clock             31250000                       # Clock period in ticks (Tick)
system.realview.dcc.osc_cpu.clock               16667                       # Clock period in ticks (Tick)
system.realview.dcc.osc_ddr.clock               25000                       # Clock period in ticks (Tick)
system.realview.dcc.osc_hsbm.clock              25000                       # Clock period in ticks (Tick)
system.realview.dcc.osc_pxl.clock               42105                       # Clock period in ticks (Tick)
system.realview.dcc.osc_smb.clock               20000                       # Clock period in ticks (Tick)
system.realview.dcc.osc_sys.clock               16667                       # Clock period in ticks (Tick)
system.realview.el2_watchdog.power_state.pwrStateResidencyTicks::UNDEFINED 717358102800                       # Cumulative time (in ticks) in various power states (Tick)
system.realview.energy_ctrl.power_state.pwrStateResidencyTicks::UNDEFINED 717358102800                       # Cumulative time (in ticks) in various power states (Tick)
system.realview.flash0.power_state.pwrStateResidencyTicks::UNDEFINED 717358102800                       # Cumulative time (in ticks) in various power states (Tick)
system.realview.flash1.power_state.pwrStateResidencyTicks::UNDEFINED 717358102800                       # Cumulative time (in ticks) in various power states (Tick)
system.realview.generic_timer_mem.frames0.power_state.pwrStateResidencyTicks::UNDEFINED 717358102800                       # Cumulative time (in ticks) in various power states (Tick)
system.realview.generic_timer_mem.frames1.power_state.pwrStateResidencyTicks::UNDEFINED 717358102800                       # Cumulative time (in ticks) in various power states (Tick)
system.realview.generic_timer_mem.power_state.pwrStateResidencyTicks::UNDEFINED 717358102800                       # Cumulative time (in ticks) in various power states (Tick)
system.realview.gic.power_state.pwrStateResidencyTicks::UNDEFINED 717358102800                       # Cumulative time (in ticks) in various power states (Tick)
system.realview.gicv2m.power_state.pwrStateResidencyTicks::UNDEFINED 717358102800                       # Cumulative time (in ticks) in various power states (Tick)
system.realview.io_voltage.voltage           3.300000                       # Voltage in Volts (Volt)
system.realview.kmi0.power_state.pwrStateResidencyTicks::UNDEFINED 717358102800                       # Cumulative time (in ticks) in various power states (Tick)
system.realview.kmi1.power_state.pwrStateResidencyTicks::UNDEFINED 717358102800                       # Cumulative time (in ticks) in various power states (Tick)
system.realview.mcc.osc_clcd.clock              42105                       # Clock period in ticks (Tick)
system.realview.mcc.osc_mcc.clock               20000                       # Clock period in ticks (Tick)
system.realview.mcc.osc_peripheral.clock        41667                       # Clock period in ticks (Tick)
system.realview.mcc.osc_system_bus.clock        41667                       # Clock period in ticks (Tick)
system.realview.non_trusted_sram.power_state.pwrStateResidencyTicks::UNDEFINED 717358102800                       # Cumulative time (in ticks) in various power states (Tick)
system.realview.pci_host.power_state.pwrStateResidencyTicks::UNDEFINED 717358102800                       # Cumulative time (in ticks) in various power states (Tick)
system.realview.pwr_ctrl.power_state.pwrStateResidencyTicks::UNDEFINED 717358102800                       # Cumulative time (in ticks) in various power states (Tick)
system.realview.realview_io.power_state.pwrStateResidencyTicks::UNDEFINED 717358102800                       # Cumulative time (in ticks) in various power states (Tick)
system.realview.rtc.power_state.pwrStateResidencyTicks::UNDEFINED 717358102800                       # Cumulative time (in ticks) in various power states (Tick)
system.realview.system_watchdog.power_state.pwrStateResidencyTicks::UNDEFINED 717358102800                       # Cumulative time (in ticks) in various power states (Tick)
system.realview.trusted_dram.power_state.pwrStateResidencyTicks::UNDEFINED 717358102800                       # Cumulative time (in ticks) in various power states (Tick)
system.realview.trusted_sram.power_state.pwrStateResidencyTicks::UNDEFINED 717358102800                       # Cumulative time (in ticks) in various power states (Tick)
system.realview.trusted_watchdog.power_state.pwrStateResidencyTicks::UNDEFINED 717358102800                       # Cumulative time (in ticks) in various power states (Tick)
system.realview.uart0.power_state.pwrStateResidencyTicks::UNDEFINED 717358102800                       # Cumulative time (in ticks) in various power states (Tick)
system.realview.uart1.power_state.pwrStateResidencyTicks::UNDEFINED 717358102800                       # Cumulative time (in ticks) in various power states (Tick)
system.realview.uart2.power_state.pwrStateResidencyTicks::UNDEFINED 717358102800                       # Cumulative time (in ticks) in various power states (Tick)
system.realview.uart3.power_state.pwrStateResidencyTicks::UNDEFINED 717358102800                       # Cumulative time (in ticks) in various power states (Tick)
system.realview.vgic.power_state.pwrStateResidencyTicks::UNDEFINED 717358102800                       # Cumulative time (in ticks) in various power states (Tick)
system.realview.vio0.power_state.pwrStateResidencyTicks::UNDEFINED 717358102800                       # Cumulative time (in ticks) in various power states (Tick)
system.realview.vio1.power_state.pwrStateResidencyTicks::UNDEFINED 717358102800                       # Cumulative time (in ticks) in various power states (Tick)
system.realview.vram.power_state.pwrStateResidencyTicks::UNDEFINED 717358102800                       # Cumulative time (in ticks) in various power states (Tick)
system.realview.watchdog.power_state.pwrStateResidencyTicks::UNDEFINED 717358102800                       # Cumulative time (in ticks) in various power states (Tick)
system.tol2bus.transDist::ReadReq              261373                       # Transaction distribution (Count)
system.tol2bus.transDist::ReadResp            2815627                       # Transaction distribution (Count)
system.tol2bus.transDist::WriteReq                257                       # Transaction distribution (Count)
system.tol2bus.transDist::WriteResp               257                       # Transaction distribution (Count)
system.tol2bus.transDist::WritebackDirty        57373                       # Transaction distribution (Count)
system.tol2bus.transDist::WritebackClean      2542777                       # Transaction distribution (Count)
system.tol2bus.transDist::CleanEvict          2383281                       # Transaction distribution (Count)
system.tol2bus.transDist::UpgradeReq              254                       # Transaction distribution (Count)
system.tol2bus.transDist::UpgradeResp             254                       # Transaction distribution (Count)
system.tol2bus.transDist::ReadExReq              3349                       # Transaction distribution (Count)
system.tol2bus.transDist::ReadExResp             3349                       # Transaction distribution (Count)
system.tol2bus.transDist::ReadCleanReq          13182                       # Transaction distribution (Count)
system.tol2bus.transDist::ReadSharedReq       2541071                       # Transaction distribution (Count)
system.tol2bus.transDist::CleanSharedReq          192                       # Transaction distribution (Count)
system.tol2bus.transDist::InvalidateReq         18062                       # Transaction distribution (Count)
system.tol2bus.transDist::InvalidateResp        18062                       # Transaction distribution (Count)
system.tol2bus.pktCount_system.cpu.icache.mem_side_port::system.l2.cpu_side_port        39548                       # Packet count per connected requestor and responder (Count)
system.tol2bus.pktCount_system.cpu.dcache.mem_side_port::system.l2.cpu_side_port      7689182                       # Packet count per connected requestor and responder (Count)
system.tol2bus.pktCount_system.cpu.mmu.itb_walker.port::system.l2.cpu_side_port         2265                       # Packet count per connected requestor and responder (Count)
system.tol2bus.pktCount_system.cpu.mmu.dtb_walker.port::system.l2.cpu_side_port       518485                       # Packet count per connected requestor and responder (Count)
system.tol2bus.pktCount::total                8249480                       # Packet count per connected requestor and responder (Count)
system.tol2bus.pktSize_system.cpu.icache.mem_side_port::system.l2.cpu_side_port      1687424                       # Cumulative packet size per connected requestor and responder (Byte)
system.tol2bus.pktSize_system.cpu.dcache.mem_side_port::system.l2.cpu_side_port    326842956                       # Cumulative packet size per connected requestor and responder (Byte)
system.tol2bus.pktSize_system.cpu.mmu.itb_walker.port::system.l2.cpu_side_port         8600                       # Cumulative packet size per connected requestor and responder (Byte)
system.tol2bus.pktSize_system.cpu.mmu.dtb_walker.port::system.l2.cpu_side_port      2068504                       # Cumulative packet size per connected requestor and responder (Byte)
system.tol2bus.pktSize::total               330607484                       # Cumulative packet size per connected requestor and responder (Byte)
system.tol2bus.snoops                         2409240                       # Total snoops (Count)
system.tol2bus.snoopTraffic                   1578832                       # Total snoop traffic (Byte)
system.tol2bus.snoopFanout::samples           5245506                       # Request fanout histogram (Count)
system.tol2bus.snoopFanout::mean             0.007134                       # Request fanout histogram (Count)
system.tol2bus.snoopFanout::stdev            0.084172                       # Request fanout histogram (Count)
system.tol2bus.snoopFanout::underflows              0      0.00%      0.00% # Request fanout histogram (Count)
system.tol2bus.snoopFanout::0                 5208090     99.29%     99.29% # Request fanout histogram (Count)
system.tol2bus.snoopFanout::1                   37411      0.71%    100.00% # Request fanout histogram (Count)
system.tol2bus.snoopFanout::2                       5      0.00%    100.00% # Request fanout histogram (Count)
system.tol2bus.snoopFanout::overflows               0      0.00%    100.00% # Request fanout histogram (Count)
system.tol2bus.snoopFanout::min_value               0                       # Request fanout histogram (Count)
system.tol2bus.snoopFanout::max_value               2                       # Request fanout histogram (Count)
system.tol2bus.snoopFanout::total             5245506                       # Request fanout histogram (Count)
system.tol2bus.power_state.pwrStateResidencyTicks::UNDEFINED 717358102800                       # Cumulative time (in ticks) in various power states (Tick)
system.tol2bus.reqLayer0.occupancy         4344668489                       # Layer occupancy (ticks) (Tick)
system.tol2bus.reqLayer0.utilization              0.0                       # Layer utilization (Ratio)
system.tol2bus.respLayer0.occupancy          15823989                       # Layer occupancy (ticks) (Tick)
system.tol2bus.respLayer0.utilization             0.0                       # Layer utilization (Ratio)
system.tol2bus.respLayer1.occupancy        3061797786                       # Layer occupancy (ticks) (Tick)
system.tol2bus.respLayer1.utilization             0.0                       # Layer utilization (Ratio)
system.tol2bus.respLayer2.occupancy            954104                       # Layer occupancy (ticks) (Tick)
system.tol2bus.respLayer2.utilization             0.0                       # Layer utilization (Ratio)
system.tol2bus.respLayer3.occupancy         207941334                       # Layer occupancy (ticks) (Tick)
system.tol2bus.respLayer3.utilization             0.0                       # Layer utilization (Ratio)
system.tol2bus.snoop_filter.totRequests       5153323                       # Total number of requests made to the snoop filter. (Count)
system.tol2bus.snoop_filter.hitSingleRequests      2577467                       # Number of requests hitting in the snoop filter with a single holder of the requested data. (Count)
system.tol2bus.snoop_filter.hitMultiRequests           55                       # Number of requests hitting in the snoop filter with multiple (>1) holders of the requested data. (Count)
system.tol2bus.snoop_filter.totSnoops           35813                       # Total number of snoops made to the snoop filter. (Count)
system.tol2bus.snoop_filter.hitSingleSnoops        35808                       # Number of snoops hitting in the snoop filter with a single holder of the requested data. (Count)
system.tol2bus.snoop_filter.hitMultiSnoops            5                       # Number of snoops hitting in the snoop filter with multiple (>1) holders of the requested data. (Count)
system.voltage_domain.voltage                       1                       # Voltage in Volts (Volt)
system.workload.inst.arm                            0                       # number of arm instructions executed (Count)
system.workload.inst.quiesce                        0                       # number of quiesce instructions executed (Count)

---------- End Simulation Statistics   ----------
